SandboxData_C2S7_20210305/C2S7N05752/scenario_001/case.raw
0,100.0,33,0,1,60.0
GRID OPTIMIZATION COMPETITION CHALLENGE 2
INPUT DATA FILES ARE RAW JSON CON
1,'100132LD',13.8,1,1,1,1,1.01213098,-84.502766,1.12,0.875,1.2,0.8
2,'100159LD',13.8,1,1,1,1,1.00934315,-84.087115,1.12,0.875,1.2,0.8
3,'100160LD',13.8,1,1,1,1,1.03364134,-90.20497,1.12,0.875,1.2,0.8
4,'100163LD',13.8,1,1,1,1,1.02645254,-83.494049,1.12,0.875,1.2,0.8
5,'100168LD',13.8,1,1,1,1,1.01135015,-83.751117,1.12,0.875,1.2,0.8
6,'100169LD',13.8,1,1,1,1,1.02773869,-83.321327,1.12,0.875,1.2,0.8
7,'100177LD',13.8,1,1,1,1,1.02689958,-84.743243,1.12,0.875,1.2,0.8
8,'100183LD',13.8,1,1,1,1,0.98586756,-79.875497,1.12,0.875,1.2,0.8
9,'100217LD',13.8,1,1,1,1,1.01166201,-81.979789,1.12,0.875,1.2,0.8
10,'100225LD',13.8,1,1,1,1,0.99724227,-78.578902,1.12,0.875,1.2,0.8
11,'100230LD',13.8,1,1,1,1,0.99962163,-78.315666,1.12,0.875,1.2,0.8
12,'100231LD',13.8,1,1,1,1,0.99815297,-78.49821,1.12,0.875,1.2,0.8
13,'100240LD',13.8,1,1,1,1,0.99955726,-78.51978,1.12,0.875,1.2,0.8
14,'100251LD',13.8,1,1,1,1,0.99871981,-78.887572,1.12,0.875,1.2,0.8
15,'100257LD',13.8,1,1,1,1,1.0087285,-82.24017,1.12,0.875,1.2,0.8
16,'100268LD',13.8,1,1,1,1,0.98915833,-79.654096,1.12,0.875,1.2,0.8
17,'100272LD',13.8,1,1,1,1,1.01117373,-82.078902,1.12,0.875,1.2,0.8
18,'100273LD',13.8,1,1,1,1,0.99882996,-82.403364,1.12,0.875,1.2,0.8
19,'100274LD',13.8,1,1,1,1,1.01098645,-81.096728,1.12,0.875,1.2,0.8
20,'100280LD',13.8,1,1,1,1,0.9953506,-79.172158,1.12,0.875,1.2,0.8
21,'100282LD',13.8,1,1,1,1,0.99236447,-79.691779,1.12,0.875,1.2,0.8
22,'100287LD',13.8,1,1,1,1,0.99730128,-79.274727,1.12,0.875,1.2,0.8
23,'100290LD',13.8,1,1,1,1,0.98931128,-80.617242,1.12,0.875,1.2,0.8
24,'100293LD',13.8,1,1,1,1,0.99410546,-79.980006,1.12,0.875,1.2,0.8
25,'100297LD',13.8,1,1,1,1,0.99661011,-79.261702,1.12,0.875,1.2,0.8
26,'100304LD',13.8,1,1,1,1,0.99534661,-81.472429,1.12,0.875,1.2,0.8
27,'100307LD',13.8,1,1,1,1,1.01246464,-85.063558,1.12,0.875,1.2,0.8
28,'100310LD',13.8,1,1,1,1,0.99443978,-81.791577,1.12,0.875,1.2,0.8
29,'100313LD',13.8,1,1,1,1,1.02026832,-85.654554,1.12,0.875,1.2,0.8
30,'100331LD',13.8,1,1,1,1,1.00267649,-83.907795,1.12,0.875,1.2,0.8
31,'100333LD',13.8,1,1,1,1,0.99262965,-80.961545,1.12,0.875,1.2,0.8
32,'100336LD',13.8,1,1,1,1,1.0044812,-81.46801,1.12,0.875,1.2,0.8
33,'100349LD',13.8,1,1,1,1,1.01367724,-83.346708,1.12,0.875,1.2,0.8
34,'100351LD',13.8,1,1,1,1,1.01084876,-83.729636,1.12,0.875,1.2,0.8
35,'100383LD',13.8,1,1,1,1,1.01243162,-83.514553,1.12,0.875,1.2,0.8
36,'100394LD',13.8,1,1,1,1,0.98329318,-87.453687,1.12,0.875,1.2,0.8
37,'100399LD',13.8,1,1,1,1,1.01296151,-86.693474,1.12,0.875,1.2,0.8
38,'100421LD',13.8,1,1,1,1,0.97975701,-91.17026,1.12,0.875,1.2,0.8
39,'100424LD',13.8,1,1,1,1,1.00473094,-90.665154,1.12,0.875,1.2,0.8
40,'100428LD',13.8,1,1,1,1,0.99763364,-87.179087,1.12,0.875,1.2,0.8
41,'100430LD',13.8,1,1,1,1,1.00399303,-87.25189,1.12,0.875,1.2,0.8
42,'100441LD',13.8,1,1,1,1,0.9984858,-88.426231,1.12,0.875,1.2,0.8
43,'100453LD',13.8,1,1,1,1,0.99999094,-87.142934,1.12,0.875,1.2,0.8
44,'100489LD',13.8,1,1,1,1,1.00864756,-86.835405,1.12,0.875,1.2,0.8
45,'100509LD',13.8,1,1,1,1,1.02205586,-83.75303,1.12,0.875,1.2,0.8
46,'100553LD',13.8,1,1,1,1,0.98665291,-82.408445,1.12,0.875,1.2,0.8
47,'100555LD',13.8,1,1,1,1,0.98608875,-82.284621,1.12,0.875,1.2,0.8
48,'100565LD',13.8,1,1,1,1,1.00761557,-87.33504,1.12,0.875,1.2,0.8
49,'100572LD',13.8,1,1,1,1,1.01377964,-87.32625,1.12,0.875,1.2,0.8
50,'100602LD',13.8,1,1,1,1,1.00371063,-91.20172,1.12,0.875,1.2,0.8
51,'100605LD',13.8,1,1,1,1,0.99653107,-86.722181,1.12,0.875,1.2,0.8
52,'100609LD',13.8,1,1,1,1,1.01368117,-83.446532,1.12,0.875,1.2,0.8
53,'100615LD',13.8,1,1,1,1,1.01522923,-83.804276,1.12,0.875,1.2,0.8
54,'100620LD',13.8,1,1,1,1,1.00183535,-85.932365,1.12,0.875,1.2,0.8
55,'100637LD',13.8,1,1,1,1,1.00840199,-84.399008,1.12,0.875,1.2,0.8
56,'100647LD',13.8,1,1,1,1,1.01488328,-79.258506,1.12,0.875,1.2,0.8
57,'100654LD',13.8,1,1,1,1,0.9892211,-80.313872,1.12,0.875,1.2,0.8
58,'100680LD',13.8,1,1,1,1,0.99333465,-80.220469,1.12,0.875,1.2,0.8
59,'100682LD',13.8,1,1,1,1,0.99554235,-80.364791,1.12,0.875,1.2,0.8
60,'100683LD',13.8,1,1,1,1,0.98748201,-81.036233,1.12,0.875,1.2,0.8
61,'100701LD',13.8,1,1,1,1,0.99232006,-79.702987,1.12,0.875,1.2,0.8
62,'100704LD',13.8,1,1,1,1,0.99092752,-80.110134,1.12,0.875,1.2,0.8
63,'100733LD',13.8,1,1,1,1,1.00501549,-84.585124,1.12,0.875,1.2,0.8
64,'100746LD',13.8,1,1,1,1,1.00332761,-85.160704,1.12,0.875,1.2,0.8
65,'100755LD',13.8,1,1,1,1,0.99281496,-86.319302,1.12,0.875,1.2,0.8
66,'100757LD',13.8,1,1,1,1,0.97723573,-82.238244,1.12,0.875,1.2,0.8
67,'100765LD',13.8,1,1,1,1,1.00832713,-83.193302,1.12,0.875,1.2,0.8
68,'100775LD',13.8,1,1,1,1,1.01296747,-84.905638,1.12,0.875,1.2,0.8
69,'100794LD',13.8,1,1,1,1,1.008371,-83.351223,1.12,0.875,1.2,0.8
70,'100797LD',13.8,1,1,1,1,1.014081,-85.341834,1.12,0.875,1.2,0.8
71,'100824LD',13.8,1,1,1,1,1.00231993,-82.593393,1.12,0.875,1.2,0.8
72,'100828LD',13.8,1,1,1,1,1.00493073,-85.816819,1.12,0.875,1.2,0.8
73,'100852LD',13.8,1,1,1,1,1.00753915,-76.598441,1.12,0.875,1.2,0.8
74,'100853LD',13.8,1,1,1,1,1.00865686,-76.1863,1.12,0.875,1.2,0.8
75,'100860LD',13.8,1,1,1,1,1.02630627,-78.620101,1.12,0.875,1.2,0.8
76,'100863LD',13.8,1,1,1,1,1.02303302,-78.441738,1.12,0.875,1.2,0.8
77,'100867LD',13.8,1,1,1,1,0.9978258,-82.738501,1.12,0.875,1.2,0.8
78,'100868LD',13.8,1,1,1,1,1.02850163,-78.234851,1.12,0.875,1.2,0.8
79,'100898LD',13.8,1,1,1,1,1.0237968,-79.858606,1.12,0.875,1.2,0.8
80,'100901LD',13.8,1,1,1,1,1.02568936,-79.127222,1.12,0.875,1.2,0.8
81,'100902LD',13.8,1,1,1,1,1.02534866,-78.017105,1.12,0.875,1.2,0.8
82,'100930LD',13.8,1,1,1,1,1.04434228,-82.359596,1.12,0.875,1.2,0.8
83,'100935LD',13.8,1,1,1,1,0.99987489,-88.878403,1.12,0.875,1.2,0.8
84,'100951LD',13.8,1,1,1,1,1.01019537,-80.003959,1.12,0.875,1.2,0.8
85,'100962LD',13.8,1,1,1,1,0.98466951,-90.816196,1.12,0.875,1.2,0.8
86,'100966LD',13.8,1,1,1,1,0.99197721,-89.898178,1.12,0.875,1.2,0.8
87,'100970LD',13.8,1,1,1,1,0.97538131,-87.637761,1.12,0.875,1.2,0.8
88,'100978LD',13.8,1,1,1,1,0.9709453,-87.964149,1.12,0.875,1.2,0.8
89,'100981LD',13.8,1,1,1,1,0.99310678,-90.293059,1.12,0.875,1.2,0.8
90,'100991LD',13.8,1,1,1,1,1.03174853,-63.692402,1.12,0.875,1.2,0.8
91,'101001LD',13.8,1,1,1,1,1.02659595,-66.869301,1.12,0.875,1.2,0.8
92,'101002LD',13.8,1,1,1,1,1.01711249,-71.241769,1.12,0.875,1.2,0.8
93,'101003LD',13.8,1,1,1,1,0.99610734,-65.30197,1.12,0.875,1.2,0.8
94,'101015LD',13.8,1,1,1,1,0.99672514,-88.247745,1.12,0.875,1.2,0.8
95,'101021LD',13.8,1,1,1,1,0.9971869,-88.113948,1.12,0.875,1.2,0.8
96,'101027LD',13.8,1,1,1,1,0.99735641,-87.8062,1.12,0.875,1.2,0.8
97,'101030LD',13.8,1,1,1,1,0.97845381,-85.807113,1.12,0.875,1.2,0.8
98,'101039LD',13.8,1,1,1,1,1.00860274,-92.583522,1.12,0.875,1.2,0.8
99,'101040LD',13.8,1,1,1,1,0.95864177,-92.789383,1.12,0.875,1.2,0.8
100,'101047LD',13.8,1,1,1,1,0.99291563,-84.883576,1.12,0.875,1.2,0.8
101,'101057LD',13.8,1,1,1,1,0.98454499,-86.693324,1.12,0.875,1.2,0.8
102,'101062LD',13.8,1,1,1,1,0.96156573,-88.637708,1.12,0.875,1.2,0.8
103,'101066LD',13.8,1,1,1,1,0.98104465,-90.922829,1.12,0.875,1.2,0.8
104,'101070LD',13.8,1,1,1,1,0.95623815,-92.174236,1.12,0.875,1.2,0.8
105,'101077LD',13.8,1,1,1,1,1.00254571,-88.884394,1.12,0.875,1.2,0.8
106,'101085LD',13.8,1,1,1,1,0.97017246,-90.847253,1.12,0.875,1.2,0.8
107,'101100LD',13.8,1,1,1,1,0.98728395,-80.393061,1.12,0.875,1.2,0.8
108,'101104LD',13.8,1,1,1,1,0.99264038,-81.675279,1.12,0.875,1.2,0.8
109,'101117LD',13.8,1,1,1,1,0.97297472,-91.498041,1.12,0.875,1.2,0.8
110,'101136LD',13.8,1,1,1,1,0.9541232,-82.594623,1.12,0.875,1.2,0.8
111,'101139LD',13.8,1,1,1,1,0.95275211,-82.929514,1.12,0.875,1.2,0.8
112,'101140LD',13.8,1,1,1,1,0.90914929,-89.677645,1.12,0.875,1.2,0.8
113,'101146LD',13.8,1,1,1,1,0.94661975,-85.585399,1.12,0.875,1.2,0.8
114,'101147LD',13.8,1,1,1,1,0.95131254,-84.664771,1.12,0.875,1.2,0.8
115,'101150LD',13.8,1,1,1,1,0.97454846,-86.066503,1.12,0.875,1.2,0.8
116,'101151LD',13.8,1,1,1,1,0.95692998,-84.86174,1.12,0.875,1.2,0.8
117,'101153LD',13.8,1,1,1,1,0.95460188,-85.637472,1.12,0.875,1.2,0.8
118,'101154LD',13.8,1,1,1,1,0.97700882,-86.230974,1.12,0.875,1.2,0.8
119,'101159LD',13.8,1,1,1,1,0.9760232,-86.849195,1.12,0.875,1.2,0.8
120,'101173LD',13.8,1,1,1,1,0.97038287,-78.478184,1.12,0.875,1.2,0.8
121,'101174LD',13.8,1,1,1,1,0.98744988,-76.467629,1.12,0.875,1.2,0.8
122,'101180LD',13.8,1,1,1,1,0.98550439,-80.802825,1.12,0.875,1.2,0.8
123,'101187LD',13.8,1,1,1,1,0.99103159,-77.963433,1.12,0.875,1.2,0.8
124,'101188LD',13.8,1,1,1,1,0.96144521,-83.816803,1.12,0.875,1.2,0.8
125,'101192LD',13.8,1,1,1,1,0.96766984,-78.01285,1.12,0.875,1.2,0.8
126,'101195LD',13.8,1,1,1,1,0.98209065,-80.202185,1.12,0.875,1.2,0.8
127,'101213LD',13.8,1,1,1,1,1.00144589,-63.335647,1.12,0.875,1.2,0.8
128,'101228LD',13.8,1,1,1,1,0.98721445,-89.404813,1.12,0.875,1.2,0.8
129,'101231LD',13.8,1,1,1,1,0.97946048,-86.634939,1.12,0.875,1.2,0.8
130,'101246LD',13.8,1,1,1,1,0.95078856,-77.404034,1.12,0.875,1.2,0.8
131,'101248LD',13.8,1,1,1,1,0.96337324,-81.078375,1.12,0.875,1.2,0.8
132,'101254LD',13.8,1,1,1,1,0.96268439,-81.046383,1.12,0.875,1.2,0.8
133,'101278LD',13.8,1,1,1,1,1.00454366,-86.180643,1.12,0.875,1.2,0.8
134,'101283LD',13.8,1,1,1,1,1.00540471,-88.329372,1.12,0.875,1.2,0.8
135,'101300LD',13.8,1,1,1,1,1.01509535,-87.887002,1.12,0.875,1.2,0.8
136,'101302LD',13.8,1,1,1,1,0.97260624,-91.638722,1.12,0.875,1.2,0.8
137,'101303LD',13.8,1,1,1,1,1.05102324,-91.560988,1.12,0.875,1.2,0.8
138,'101307LD',13.8,1,1,1,1,1.00309479,-85.896316,1.12,0.875,1.2,0.8
139,'101310LD',13.8,1,1,1,1,0.99319714,-88.523439,1.12,0.875,1.2,0.8
140,'101348LD',13.8,1,1,1,1,1.00194132,-89.540221,1.12,0.875,1.2,0.8
141,'101353LD',13.8,1,1,1,1,1.00332689,-93.336311,1.12,0.875,1.2,0.8
142,'101369LD',13.8,1,1,1,1,0.99933839,-83.509438,1.12,0.875,1.2,0.8
143,'101375LD',13.8,1,1,1,1,1.00017238,-83.49032,1.12,0.875,1.2,0.8
144,'101377LD',13.8,1,1,1,1,0.99350077,-87.415411,1.12,0.875,1.2,0.8
145,'101388LD',13.8,1,1,1,1,0.99927527,-89.236381,1.12,0.875,1.2,0.8
146,'101392LD',13.8,1,1,1,1,0.99683285,-91.673795,1.12,0.875,1.2,0.8
147,'101405LD',13.8,1,1,1,1,0.9891904,-96.903917,1.12,0.875,1.2,0.8
148,'101417LD',13.8,1,1,1,1,1.00935602,-90.139386,1.12,0.875,1.2,0.8
149,'101418LD',13.8,1,1,1,1,0.99641836,-86.219998,1.12,0.875,1.2,0.8
150,'101419LD',13.8,1,1,1,1,1.00322521,-87.285726,1.12,0.875,1.2,0.8
151,'101422LD',13.8,1,1,1,1,0.99965042,-85.551077,1.12,0.875,1.2,0.8
152,'101423LD',13.8,1,1,1,1,1.00137615,-85.598758,1.12,0.875,1.2,0.8
153,'101426LD',13.8,1,1,1,1,0.99912035,-90.121675,1.12,0.875,1.2,0.8
154,'101430LD',13.8,1,1,1,1,1.00689757,-89.204422,1.12,0.875,1.2,0.8
155,'101432LD',13.8,1,1,1,1,1.01382577,-88.931952,1.12,0.875,1.2,0.8
156,'101438LD',13.8,1,1,1,1,0.99994212,-93.941015,1.12,0.875,1.2,0.8
157,'101440LD',13.8,1,1,1,1,1.00867403,-85.766173,1.12,0.875,1.2,0.8
158,'101441LD',13.8,1,1,1,1,0.99904168,-87.434898,1.12,0.875,1.2,0.8
159,'101446LD',13.8,1,1,1,1,1.01200795,-87.906932,1.12,0.875,1.2,0.8
160,'101448LD',13.8,1,1,1,1,1.00381839,-85.745068,1.12,0.875,1.2,0.8
161,'101450LD',13.8,1,1,1,1,1.00397289,-86.820399,1.12,0.875,1.2,0.8
162,'101452LD',13.8,1,1,1,1,0.98713881,-85.59397,1.12,0.875,1.2,0.8
163,'101453LD',13.8,1,1,1,1,1.01058578,-86.89605,1.12,0.875,1.2,0.8
164,'101457LD',13.8,1,1,1,1,0.98223048,-87.332841,1.12,0.875,1.2,0.8
165,'101460LD',13.8,1,1,1,1,1.00562584,-90.68061,1.12,0.875,1.2,0.8
166,'101482LD',13.8,1,1,1,1,0.98772991,-86.082083,1.12,0.875,1.2,0.8
167,'101488LD',13.8,1,1,1,1,0.98480761,-93.207309,1.12,0.875,1.2,0.8
168,'101519LD',13.8,1,1,1,1,0.99384832,-92.729968,1.12,0.875,1.2,0.8
169,'101526LD',13.8,1,1,1,1,0.99918878,-89.153585,1.12,0.875,1.2,0.8
170,'101574LD',13.8,1,1,1,1,1.00419724,-89.162915,1.12,0.875,1.2,0.8
171,'101576LD',13.8,1,1,1,1,0.9928211,-87.426777,1.12,0.875,1.2,0.8
172,'101578LD',13.8,1,1,1,1,1.02128649,-89.430385,1.12,0.875,1.2,0.8
173,'101585LD',13.8,1,1,1,1,0.97416508,-96.047001,1.12,0.875,1.2,0.8
174,'101591LD',13.8,1,1,1,1,0.98970109,-92.472319,1.12,0.875,1.2,0.8
175,'101595LD',13.8,1,1,1,1,0.97687894,-93.61305,1.12,0.875,1.2,0.8
176,'101598LD',13.8,1,1,1,1,1.00896835,-86.722468,1.12,0.875,1.2,0.8
177,'101601LD',13.8,1,1,1,1,1.00432742,-86.878319,1.12,0.875,1.2,0.8
178,'101632LD',13.8,1,1,1,1,1.01373315,-87.449542,1.12,0.875,1.2,0.8
179,'101639LD',13.8,1,1,1,1,1.01334476,-89.281986,1.12,0.875,1.2,0.8
180,'101651LD',13.8,1,1,1,1,0.99745357,-85.883816,1.12,0.875,1.2,0.8
181,'101654LD',13.8,1,1,1,1,1.01641107,-86.130407,1.12,0.875,1.2,0.8
182,'101658LD',13.8,1,1,1,1,0.99373835,-90.662531,1.12,0.875,1.2,0.8
183,'101662LD',13.8,1,1,1,1,0.9732424,-92.245202,1.12,0.875,1.2,0.8
184,'101684LD',13.8,1,1,1,1,1.01009226,-85.992382,1.12,0.875,1.2,0.8
185,'101686LD',13.8,1,1,1,1,1.01227617,-85.76116,1.12,0.875,1.2,0.8
186,'101688LD',13.8,1,1,1,1,1.0105859,-85.925993,1.12,0.875,1.2,0.8
187,'101689LD',13.8,1,1,1,1,1.00113106,-84.181282,1.12,0.875,1.2,0.8
188,'101699LD',13.8,1,1,1,1,1.01045573,-87.319351,1.12,0.875,1.2,0.8
189,'101700LD',13.8,1,1,1,1,1.01757813,-86.45553,1.12,0.875,1.2,0.8
190,'101701LD',13.8,1,1,1,1,1.01095939,-86.428005,1.12,0.875,1.2,0.8
191,'101703LD',13.8,1,1,1,1,1.00087428,-87.498056,1.12,0.875,1.2,0.8
192,'101708LD',13.8,1,1,1,1,0.99610847,-91.58059,1.12,0.875,1.2,0.8
193,'101748LD',13.8,1,1,1,1,1.01405287,-88.04816,1.12,0.875,1.2,0.8
194,'101759LD',13.8,1,1,1,1,1.01771522,-87.795552,1.12,0.875,1.2,0.8
195,'101764LD',13.8,1,1,1,1,0.99901652,-84.611174,1.12,0.875,1.2,0.8
196,'101766LD',13.8,1,1,1,1,0.9986549,-84.464558,1.12,0.875,1.2,0.8
197,'101770LD',13.8,1,1,1,1,0.98889768,-85.24492,1.12,0.875,1.2,0.8
198,'101780LD',13.8,1,1,1,1,1.00204623,-88.018394,1.12,0.875,1.2,0.8
199,'101781LD',13.8,1,1,1,1,1.00399911,-89.328923,1.12,0.875,1.2,0.8
200,'101783LD',13.8,1,1,1,1,1.00499713,-89.793355,1.12,0.875,1.2,0.8
...
0 / END OF BUS DATA BEGIN LOAD DATA
1,'LV',1,1,1,12.59,3.0,0.0,0.0,0.0,0.0,1,1,0
2,'LV',1,1,1,12.75,3.0,0.0,0.0,0.0,0.0,1,1,0
3,'LV',1,1,1,28.9,7.12,0.0,0.0,0.0,0.0,1,1,0
4,'LV',1,1,1,10.55,4.51,0.0,0.0,0.0,0.0,1,1,0
5,'LV',1,1,1,11.47,2.0,0.0,0.0,0.0,0.0,1,1,0
6,'LV',1,1,1,10.13,4.69,0.0,0.0,0.0,0.0,1,1,0
7,'LV',1,1,1,15.66,6.81,0.0,0.0,0.0,0.0,1,1,0
8,'LV',1,1,1,8.08,3.77,0.0,0.0,0.0,0.0,1,1,0
9,'LV',1,1,1,10.41,4.91,0.0,0.0,0.0,0.0,1,1,0
10,'LV',1,1,1,5.85,3.03,0.0,0.0,0.0,0.0,1,1,0
11,'LV',1,1,1,5.89,2.87,0.0,0.0,0.0,0.0,1,1,0
12,'LV',1,1,1,5.3,2.55,0.0,0.0,0.0,0.0,1,1,0
13,'LV',1,1,1,5.61,2.64,0.0,0.0,0.0,0.0,1,1,0
14,'LV',1,1,1,5.26,2.42,0.0,0.0,0.0,0.0,1,1,0
15,'LV',1,1,1,13.34,7.05,0.0,0.0,0.0,0.0,1,1,0
16,'LV',1,1,1,14.43,6.27,0.0,0.0,0.0,0.0,1,1,0
17,'LV',1,1,1,33.52,15.8,0.0,0.0,0.0,0.0,1,1,0
18,'LV',1,1,1,36.34,18.18,0.0,0.0,0.0,0.0,1,1,0
19,'LV',1,1,1,10.66,5.32,0.0,0.0,0.0,0.0,1,1,0
20,'LV',1,1,1,8.75,4.29,0.0,0.0,0.0,0.0,1,1,0
21,'LV',1,1,1,6.76,3.91,0.0,0.0,0.0,0.0,1,1,0
22,'LV',1,1,1,5.37,2.7,0.0,0.0,0.0,0.0,1,1,0
23,'LV',1,1,1,5.86,2.99,0.0,0.0,0.0,0.0,1,1,0
24,'LV',1,1,1,5.99,2.05,0.0,0.0,0.0,0.0,1,1,0
25,'LV',1,1,1,7.73,3.47,0.0,0.0,0.0,0.0,1,1,0
26,'LV',1,1,1,7.13,3.27,0.0,0.0,0.0,0.0,1,1,0
27,'LV',1,1,1,11.2,5.33,0.0,0.0,0.0,0.0,1,1,0
28,'LV',1,1,1,6.34,3.58,0.0,0.0,0.0,0.0,1,1,0
29,'LV',1,1,1,11.46,5.84,0.0,0.0,0.0,0.0,1,1,0
30,'LV',1,1,1,10.17,5.07,0.0,0.0,0.0,0.0,1,1,0
31,'LV',1,1,1,6.77,3.76,0.0,0.0,0.0,0.0,1,1,0
32,'LV',1,1,1,7.9,3.72,0.0,0.0,0.0,0.0,1,1,0
33,'LV',1,1,1,5.56,2.69,0.0,0.0,0.0,0.0,1,1,0
34,'LV',1,1,1,6.84,3.26,0.0,0.0,0.0,0.0,1,1,0
35,'LV',1,1,1,6.34,3.22,0.0,0.0,0.0,0.0,1,1,0
36,'LV',1,1,1,15.35,4.221,0.0,0.0,0.0,0.0,1,1,0
37,'LV',1,1,1,10.78,4.18,0.0,0.0,0.0,0.0,1,1,0
38,'LV',1,1,1,20.52,5.643,0.0,0.0,0.0,0.0,1,1,0
39,'LV',1,1,1,50.23,23.83,0.0,0.0,0.0,0.0,1,1,0
40,'LV',1,1,1,11.78,5.7,0.0,0.0,0.0,0.0,1,1,0
41,'LV',1,1,1,11.45,6.17,0.0,0.0,0.0,0.0,1,1,0
42,'LV',1,1,1,14.05,7.66,0.0,0.0,0.0,0.0,1,1,0
43,'LV',1,1,1,10.96,4.59,0.0,0.0,0.0,0.0,1,1,0
44,'LV',1,1,1,12.64,5.19,0.0,0.0,0.0,0.0,1,1,0
45,'LV',1,1,1,8.08,4.34,0.0,0.0,0.0,0.0,1,1,0
46,'LV',1,1,1,5.1,2.01,0.0,0.0,0.0,0.0,1,1,0
47,'LV',1,1,1,5.5,3.23,0.0,0.0,0.0,0.0,1,1,0
48,'LV',1,1,1,10.68,4.74,0.0,0.0,0.0,0.0,1,1,0
49,'LV',1,1,1,12.95,6.07,0.0,0.0,0.0,0.0,1,1,0
50,'LV',1,1,1,13.11,3.28,0.0,0.0,0.0,0.0,1,1,0
51,'LV',1,1,1,10.92,5.22,0.0,0.0,0.0,0.0,1,1,0
52,'LV',1,1,1,7.08,3.25,0.0,0.0,0.0,0.0,1,1,0
53,'LV',1,1,1,5.82,2.24,0.0,0.0,0.0,0.0,1,1,0
54,'LV',1,1,1,12.72,5.92,0.0,0.0,0.0,0.0,1,1,0
55,'LV',1,1,1,10.51,4.23,0.0,0.0,0.0,0.0,1,1,0
56,'LV',1,1,1,7.96,3.56,0.0,0.0,0.0,0.0,1,1,0
57,'LV',1,1,1,6.83,3.19,0.0,0.0,0.0,0.0,1,1,0
58,'LV',1,1,1,6.14,3.35,0.0,0.0,0.0,0.0,1,1,0
59,'LV',1,1,1,7.32,2.74,0.0,0.0,0.0,0.0,1,1,0
60,'LV',1,1,1,10.98,4.87,0.0,0.0,0.0,0.0,1,1,0
61,'LV',1,1,1,8.41,4.67,0.0,0.0,0.0,0.0,1,1,0
62,'LV',1,1,1,7.77,4.16,0.0,0.0,0.0,0.0,1,1,0
63,'LV',1,1,1,12.28,5.75,0.0,0.0,0.0,0.0,1,1,0
64,'LV',1,1,1,12.63,6.39,0.0,0.0,0.0,0.0,1,1,0
65,'LV',1,1,1,38.85,12.92,0.0,0.0,0.0,0.0,1,1,0
66,'LV',1,1,1,8.86,4.36,0.0,0.0,0.0,0.0,1,1,0
67,'LV',1,1,1,10.73,5.69,0.0,0.0,0.0,0.0,1,1,0
68,'LV',1,1,1,17.07,7.66,0.0,0.0,0.0,0.0,1,1,0
69,'LV',1,1,1,12.87,5.38,0.0,0.0,0.0,0.0,1,1,0
70,'LV',1,1,1,12.63,5.98,0.0,0.0,0.0,0.0,1,1,0
71,'LV',1,1,1,7.34,4.17,0.0,0.0,0.0,0.0,1,1,0
72,'LV',1,1,1,10.29,4.8,0.0,0.0,0.0,0.0,1,1,0
73,'LV',1,1,1,5.27,2.68,0.0,0.0,0.0,0.0,1,1,0
74,'LV',1,1,1,5.65,2.88,0.0,0.0,0.0,0.0,1,1,0
75,'LV',1,1,1,5.36,2.9,0.0,0.0,0.0,0.0,1,1,0
76,'LV',1,1,1,5.53,2.84,0.0,0.0,0.0,0.0,1,1,0
77,'LV',1,1,1,13.84,6.73,0.0,0.0,0.0,0.0,1,1,0
78,'LV',1,1,1,7.24,3.64,0.0,0.0,0.0,0.0,1,1,0
79,'LV',1,1,1,5.6,2.59,0.0,0.0,0.0,0.0,1,1,0
80,'LV',1,1,1,12.85,6.39,0.0,0.0,0.0,0.0,1,1,0
81,'LV',1,1,1,10.19,4.58,0.0,0.0,0.0,0.0,1,1,0
82,'LV',1,1,1,10.34,5.47,0.0,0.0,0.0,0.0,1,1,0
83,'LV',1,1,1,13.11,6.98,0.0,0.0,0.0,0.0,1,1,0
84,'LV',1,1,1,8.61,3.69,0.0,0.0,0.0,0.0,1,1,0
85,'LV',1,1,1,11.86,5.28,0.0,0.0,0.0,0.0,1,1,0
86,'LV',1,1,1,11.2,4.78,0.0,0.0,0.0,0.0,1,1,0
87,'LV',1,1,1,8.6,3.62,0.0,0.0,0.0,0.0,1,1,0
88,'LV',1,1,1,11.29,5.0,0.0,0.0,0.0,0.0,1,1,0
89,'LV',1,1,1,10.54,3.99,0.0,0.0,0.0,0.0,1,1,0
90,'LV',1,1,1,12.03,5.15,0.0,0.0,0.0,0.0,1,1,0
91,'LV',1,1,1,16.23,8.65,0.0,0.0,0.0,0.0,1,1,0
92,'LV',1,1,1,30.77,13.59,0.0,0.0,0.0,0.0,1,1,0
93,'LV',1,1,1,11.32,5.94,0.0,0.0,0.0,0.0,1,1,0
94,'LV',1,1,1,11.97,5.96,0.0,0.0,0.0,0.0,1,1,0
95,'LV',1,1,1,12.12,6.15,0.0,0.0,0.0,0.0,1,1,0
96,'LV',1,1,1,11.7,5.86,0.0,0.0,0.0,0.0,1,1,0
97,'LV',1,1,1,10.21,4.67,0.0,0.0,0.0,0.0,1,1,0
98,'LV',1,1,1,58.86,21.42,0.0,0.0,0.0,0.0,1,1,0
99,'LV',1,1,1,56.89,15.645,0.0,0.0,0.0,0.0,1,1,0
100,'LV',1,1,1,7.06,2.66,0.0,0.0,0.0,0.0,1,1,0
101,'LV',1,1,1,7.45,4.08,0.0,0.0,0.0,0.0,1,1,0
102,'LV',1,1,1,10.61,4.51,0.0,0.0,0.0,0.0,1,1,0
103,'LV',1,1,1,11.56,5.02,0.0,0.0,0.0,0.0,1,1,0
104,'LV',1,1,1,10.67,4.73,0.0,0.0,0.0,0.0,1,1,0
105,'LV',1,1,1,14.7,6.28,0.0,0.0,0.0,0.0,1,1,0
106,'LV',1,1,1,13.39,7.02,0.0,0.0,0.0,0.0,1,1,0
107,'LV',1,1,1,10.57,5.24,0.0,0.0,0.0,0.0,1,1,0
108,'LV',1,1,1,13.17,4.38,0.0,0.0,0.0,0.0,1,1,0
109,'LV',1,1,1,11.07,4.01,0.0,0.0,0.0,0.0,1,1,0
110,'LV',1,1,1,7.9,3.34,0.0,0.0,0.0,0.0,1,1,0
111,'LV',1,1,1,7.15,3.14,0.0,0.0,0.0,0.0,1,1,0
112,'LV',1,1,1,15.93,3.782,0.0,0.0,0.0,0.0,1,1,0
113,'LV',1,1,1,5.74,2.72,0.0,0.0,0.0,0.0,1,1,0
114,'LV',1,1,1,8.33,3.8,0.0,0.0,0.0,0.0,1,1,0
115,'LV',1,1,1,10.58,5.24,0.0,0.0,0.0,0.0,1,1,0
116,'LV',1,1,1,5.47,2.56,0.0,0.0,0.0,0.0,1,1,0
117,'LV',1,1,1,7.31,3.63,0.0,0.0,0.0,0.0,1,1,0
118,'LV',1,1,1,9.81,4.3,0.0,0.0,0.0,0.0,1,1,0
119,'LV',1,1,1,5.54,2.24,0.0,0.0,0.0,0.0,1,1,0
120,'LV',1,1,1,18.88,9.25,0.0,0.0,0.0,0.0,1,1,0
121,'LV',1,1,1,6.04,3.03,0.0,0.0,0.0,0.0,1,1,0
122,'LV',1,1,1,14.44,7.19,0.0,0.0,0.0,0.0,1,1,0
123,'LV',1,1,1,10.6,5.59,0.0,0.0,0.0,0.0,1,1,0
124,'LV',1,1,1,25.47,7.004,0.0,0.0,0.0,0.0,1,1,0
125,'LV',1,1,1,8.81,4.8,0.0,0.0,0.0,0.0,1,1,0
126,'LV',1,1,1,8.61,3.6,0.0,0.0,0.0,0.0,1,1,0
127,'LV',1,1,1,16.53,6.85,0.0,0.0,0.0,0.0,1,1,0
128,'LV',1,1,1,11.83,5.88,0.0,0.0,0.0,0.0,1,1,0
129,'LV',1,1,1,12.69,7.01,0.0,0.0,0.0,0.0,1,1,0
130,'LV',1,1,1,5.74,2.58,0.0,0.0,0.0,0.0,1,1,0
131,'LV',1,1,1,10.5,4.87,0.0,0.0,0.0,0.0,1,1,0
132,'LV',1,1,1,5.49,2.69,0.0,0.0,0.0,0.0,1,1,0
133,'LV',1,1,1,8.01,4.2,0.0,0.0,0.0,0.0,1,1,0
134,'LV',1,1,1,6.51,3.8,0.0,0.0,0.0,0.0,1,1,0
135,'LV',1,1,1,21.01,5.84,0.0,0.0,0.0,0.0,1,1,0
136,'LV',1,1,1,16.66,4.582,0.0,0.0,0.0,0.0,1,1,0
137,'LV',1,1,1,15.82,6.8,0.0,0.0,0.0,0.0,1,1,0
138,'LV',1,1,1,13.44,5.94,0.0,0.0,0.0,0.0,1,1,0
139,'LV',1,1,1,37.48,16.58,0.0,0.0,0.0,0.0,1,1,0
140,'LV',1,1,1,5.41,2.77,0.0,0.0,0.0,0.0,1,1,0
141,'LV',1,1,1,14.38,6.79,0.0,0.0,0.0,0.0,1,1,0
142,'LV',1,1,1,7.93,4.03,0.0,0.0,0.0,0.0,1,1,0
143,'LV',1,1,1,7.29,3.71,0.0,0.0,0.0,0.0,1,1,0
144,'LV',1,1,1,13.49,6.65,0.0,0.0,0.0,0.0,1,1,0
145,'LV',1,1,1,11.25,5.24,0.0,0.0,0.0,0.0,1,1,0
146,'LV',1,1,1,11.18,2.8,0.0,0.0,0.0,0.0,1,1,0
147,'LV',1,1,1,38.17,8.156,0.0,0.0,0.0,0.0,1,1,0
148,'LV',1,1,1,12.72,4.6,0.0,0.0,0.0,0.0,1,1,0
149,'LV',1,1,1,5.95,2.91,0.0,0.0,0.0,0.0,1,1,0
150,'LV',1,1,1,8.8,3.81,0.0,0.0,0.0,0.0,1,1,0
151,'LV',1,1,1,5.03,2.55,0.0,0.0,0.0,0.0,1,1,0
152,'LV',1,1,1,5.94,2.6,0.0,0.0,0.0,0.0,1,1,0
153,'LV',1,1,1,12.68,6.75,0.0,0.0,0.0,0.0,1,1,0
154,'LV',1,1,1,12.57,5.19,0.0,0.0,0.0,0.0,1,1,0
155,'LV',1,1,1,12.99,4.78,0.0,0.0,0.0,0.0,1,1,0
156,'LV',1,1,1,26.32,12.89,0.0,0.0,0.0,0.0,1,1,0
157,'LV',1,1,1,11.43,4.75,0.0,0.0,0.0,0.0,1,1,0
158,'LV',1,1,1,16.39,6.68,0.0,0.0,0.0,0.0,1,1,0
159,'LV',1,1,1,10.02,4.09,0.0,0.0,0.0,0.0,1,1,0
160,'LV',1,1,1,10.73,5.41,0.0,0.0,0.0,0.0,1,1,0
161,'LV',1,1,1,16.83,8.25,0.0,0.0,0.0,0.0,1,1,0
162,'LV',1,1,1,6.03,3.0,0.0,0.0,0.0,0.0,1,1,0
163,'LV',1,1,1,9.45,5.21,0.0,0.0,0.0,0.0,1,1,0
164,'LV',1,1,1,10.45,3.78,0.0,0.0,0.0,0.0,1,1,0
165,'LV',1,1,1,14.08,4.61,0.0,0.0,0.0,0.0,1,1,0
166,'LV',1,1,1,7.02,3.74,0.0,0.0,0.0,0.0,1,1,0
167,'LV',1,1,1,14.25,6.14,0.0,0.0,0.0,0.0,1,1,0
168,'LV',1,1,1,13.57,5.97,0.0,0.0,0.0,0.0,1,1,0
169,'LV',1,1,1,8.41,3.67,0.0,0.0,0.0,0.0,1,1,0
170,'LV',1,1,1,15.52,6.3,0.0,0.0,0.0,0.0,1,1,0
171,'LV',1,1,1,11.32,5.26,0.0,0.0,0.0,0.0,1,1,0
172,'LV',1,1,1,10.12,4.75,0.0,0.0,0.0,0.0,1,1,0
173,'LV',1,1,1,20.8,5.72,0.0,0.0,0.0,0.0,1,1,0
174,'LV',1,1,1,13.28,5.29,0.0,0.0,0.0,0.0,1,1,0
175,'LV',1,1,1,17.48,4.807,0.0,0.0,0.0,0.0,1,1,0
176,'LV',1,1,1,6.73,3.03,0.0,0.0,0.0,0.0,1,1,0
177,'LV',1,1,1,6.09,2.62,0.0,0.0,0.0,0.0,1,1,0
178,'LV',1,1,1,12.34,6.52,0.0,0.0,0.0,0.0,1,1,0
179,'LV',1,1,1,10.79,4.83,0.0,0.0,0.0,0.0,1,1,0
180,'LV',1,1,1,5.15,2.32,0.0,0.0,0.0,0.0,1,1,0
181,'LV',1,1,1,6.73,2.94,0.0,0.0,0.0,0.0,1,1,0
182,'LV',1,1,1,12.91,5.07,0.0,0.0,0.0,0.0,1,1,0
183,'LV',1,1,1,18.72,5.148,0.0,0.0,0.0,0.0,1,1,0
184,'LV',1,1,1,5.29,2.66,0.0,0.0,0.0,0.0,1,1,0
185,'LV',1,1,1,12.41,4.92,0.0,0.0,0.0,0.0,1,1,0
186,'LV',1,1,1,14.4,7.33,0.0,0.0,0.0,0.0,1,1,0
187,'LV',1,1,1,5.45,1.89,0.0,0.0,0.0,0.0,1,1,0
188,'LV',1,1,1,7.81,4.21,0.0,0.0,0.0,0.0,1,1,0
189,'LV',1,1,1,5.13,2.05,0.0,0.0,0.0,0.0,1,1,0
190,'LV',1,1,1,5.8,2.51,0.0,0.0,0.0,0.0,1,1,0
191,'LV',1,1,1,9.98,4.56,0.0,0.0,0.0,0.0,1,1,0
192,'LV',1,1,1,16.14,8.35,0.0,0.0,0.0,0.0,1,1,0
193,'LV',1,1,1,11.63,4.67,0.0,0.0,0.0,0.0,1,1,0
194,'LV',1,1,1,12.46,5.25,0.0,0.0,0.0,0.0,1,1,0
195,'LV',1,1,1,6.01,2.64,0.0,0.0,0.0,0.0,1,1,0
196,'LV',1,1,1,5.19,2.73,0.0,0.0,0.0,0.0,1,1,0
197,'LV',1,1,1,8.22,4.39,0.0,0.0,0.0,0.0,1,1,0
198,'LV',1,1,1,11.48,6.11,0.0,0.0,0.0,0.0,1,1,0
199,'LV',1,1,1,16.23,5.84,0.0,0.0,0.0,0.0,1,1,0
200,'LV',1,1,1,15.07,6.62,0.0,0.0,0.0,0.0,1,1,0
...
0 / END OF LOAD DATA BEGIN FIXED SHUNT DATA
0 / END OF FIXED SHUNT DATA BEGIN GENERATOR DATA
874,'1',1253.0,267.608,514.7,-514.7,0.99575,0,100.0,0.0,1.0,0.0,0.0,1.0,1,100.0,1253.0,65.0,1,1.0,0,1.0,0,1.0,0,1.0,0,1.0
875,'1',460.0,222.8,222.8,-153.3,1.03186,0,100.0,0.0,1.0,0.0,0.0,1.0,1,100.0,460.0,100.0,1,1.0,0,1.0,0,1.0,0,1.0,0,1.0
876,'1',0.0,0.0,247.9,-133.3,1.02415,0,100.0,0.0,1.0,0.0,0.0,1.0,0,100.0,400.0,130.0,1,1.0,0,1.0,0,1.0,0,1.0,0,1.0
877,'1',289.0,179.1,179.1,-96.3,0.9841,0,100.0,0.0,1.0,0.0,0.0,1.0,1,100.0,289.0,160.0,1,1.0,0,1.0,0,1.0,0,1.0,0,1.0
878,'1',280.0,93.927,173.5,-93.3,0.98344,0,100.0,0.0,1.0,0.0,0.0,1.0,1,100.0,280.0,145.0,1,1.0,0,1.0,0,1.0,0,1.0,0,1.0
879,'1',180.0,72.044,111.6,-60.0,1.01604,0,100.0,0.0,1.0,0.0,0.0,1.0,1,100.0,180.0,95.4,1,1.0,0,1.0,0,1.0,0,1.0,0,1.0
880,'1',239.4,148.4,148.4,-79.8,0.97899,0,100.0,0.0,1.0,0.0,0.0,1.0,1,100.0,239.4,100.0,1,1.0,0,1.0,0,1.0,0,1.0,0,1.0
881,'1',96.0,72.0,72.0,-32.0,1.05106,0,100.0,0.0,1.0,0.0,0.0,1.0,1,100.0,96.0,50.0,1,1.0,0,1.0,0,1.0,0,1.0,0,1.0
882,'1',84.0,27.6,27.6,-27.6,1.0018,0,100.0,0.0,1.0,0.0,0.0,1.0,1,100.0,84.0,40.0,1,1.0,0,1.0,0,1.0,0,1.0,0,1.0
883,'1',242.226,107.648,200.9,-138.3,1.00191,0,100.0,0.0,1.0,0.0,0.0,1.0,1,100.0,414.9,125.0,1,1.0,0,1.0,0,1.0,0,1.0,0,1.0
884,'1',67.0,35.1,41.5,-22.3,1.0147,0,100.0,0.0,1.0,0.0,0.0,1.0,1,100.0,67.0,10.0,1,1.0,0,1.0,0,1.0,0,1.0,0,1.0
885,'1',40.0,15.528,24.8,-13.3,1.03,0,100.0,0.0,1.0,0.0,0.0,1.0,1,100.0,40.0,15.0,1,1.0,0,1.0,0,1.0,0,1.0,0,1.0
885,'2',56.0,15.528,34.7,-18.7,1.03,0,100.0,0.0,1.0,0.0,0.0,1.0,1,100.0,56.0,16.0,1,1.0,0,1.0,0,1.0,0,1.0,0,1.0
886,'1',51.0,21.005,31.6,-17.0,1.03568,0,100.0,0.0,1.0,0.0,0.0,1.0,1,100.0,51.0,16.0,1,1.0,0,1.0,0,1.0,0,1.0,0,1.0
886,'2',51.0,21.005,31.6,-17.0,1.03568,0,100.0,0.0,1.0,0.0,0.0,1.0,1,100.0,51.0,16.0,1,1.0,0,1.0,0,1.0,0,1.0,0,1.0
887,'1',0.0,0.0,31.0,-16.7,1.08282,0,100.0,0.0,1.0,0.0,0.0,1.0,0,100.0,50.0,2.0,1,1.0,0,1.0,0,1.0,0,1.0,0,1.0
887,'2',0.0,0.0,31.0,-16.7,1.08282,0,100.0,0.0,1.0,0.0,0.0,1.0,0,100.0,50.0,2.0,1,1.0,0,1.0,0,1.0,0,1.0,0,1.0
888,'1',45.0,21.8,21.8,-15.0,1.08508,0,100.0,0.0,1.0,0.0,0.0,1.0,1,100.0,45.0,22.0,1,1.0,0,1.0,0,1.0,0,1.0,0,1.0
888,'2',45.0,33.8,33.8,-15.0,1.08508,0,100.0,0.0,1.0,0.0,0.0,1.0,1,100.0,45.0,22.0,1,1.0,0,1.0,0,1.0,0,1.0,0,1.0
889,'1',44.1,21.4,21.4,-14.7,1.07371,0,100.0,0.0,1.0,0.0,0.0,1.0,1,100.0,44.1,21.0,1,1.0,0,1.0,0,1.0,0,1.0,0,1.0
889,'2',34.1,16.5,16.5,-11.4,1.07371,0,100.0,0.0,1.0,0.0,0.0,1.0,1,100.0,34.1,5.0,1,1.0,0,1.0,0,1.0,0,1.0,0,1.0
890,'1',41.8,20.2,20.2,-13.9,1.08169,0,100.0,0.0,1.0,0.0,0.0,1.0,1,100.0,41.8,10.0,1,1.0,0,1.0,0,1.0,0,1.0,0,1.0
890,'2',41.8,20.2,20.2,-13.9,1.08169,0,100.0,0.0,1.0,0.0,0.0,1.0,1,100.0,41.8,10.0,1,1.0,0,1.0,0,1.0,0,1.0,0,1.0
891,'1',37.2,23.1,23.1,-12.4,1.03817,0,100.0,0.0,1.0,0.0,0.0,1.0,1,100.0,37.2,0.0,1,1.0,0,1.0,0,1.0,0,1.0,0,1.0
892,'1',31.3,0.0,0.0,0.0,0.95932,0,100.0,0.0,1.0,0.0,0.0,1.0,1,100.0,31.3,6.0,1,1.0,0,1.0,0,1.0,0,1.0,0,1.0
893,'1',7.63,4.25,4.25,-2.55,1.002,0,100.0,0.0,1.0,0.0,0.0,1.0,1,100.0,7.63,0.0,1,1.0,0,1.0,0,1.0,0,1.0,0,1.0
893,'2',7.63,4.25,4.25,-2.55,1.002,0,100.0,0.0,1.0,0.0,0.0,1.0,1,100.0,7.63,0.0,1,1.0,0,1.0,0,1.0,0,1.0,0,1.0
894,'1',0.0,0.0,16.0,-8.6,0.98867,0,100.0,0.0,1.0,0.0,0.0,1.0,0,100.0,25.8,12.0,1,1.0,0,1.0,0,1.0,0,1.0,0,1.0
895,'1',1.749,18.0,18.0,-8.0,1.02739,0,100.0,0.0,1.0,0.0,0.0,1.0,1,100.0,24.0,0.0,1,1.0,0,1.0,0,1.0,0,1.0,0,1.0
896,'1',23.2,7.061,14.4,-7.7,1.01086,0,100.0,0.0,1.0,0.0,0.0,1.0,1,100.0,23.2,15.0,1,1.0,0,1.0,0,1.0,0,1.0,0,1.0
896,'2',23.2,7.061,14.4,-7.7,1.01086,0,100.0,0.0,1.0,0.0,0.0,1.0,1,100.0,23.2,15.0,1,1.0,0,1.0,0,1.0,0,1.0,0,1.0
897,'1',21.8,13.5,13.5,-7.3,1.01653,0,100.0,0.0,1.0,0.0,0.0,1.0,1,100.0,21.8,17.4,1,1.0,0,1.0,0,1.0,0,1.0,0,1.0
898,'1',21.8,10.74,13.5,-7.3,1.02928,0,100.0,0.0,1.0,0.0,0.0,1.0,1,100.0,21.8,13.0,1,1.0,0,1.0,0,1.0,0,1.0,0,1.0
899,'1',21.8,10.325,13.5,-7.3,0.96935,0,100.0,0.0,1.0,0.0,0.0,1.0,1,100.0,21.8,13.0,1,1.0,0,1.0,0,1.0,0,1.0,0,1.0
900,'1',20.2,14.6,14.6,-6.7,1.02948,0,100.0,0.0,1.0,0.0,0.0,1.0,1,100.0,20.2,7.4,1,1.0,0,1.0,0,1.0,0,1.0,0,1.0
901,'1',60.5,37.5,37.5,-20.2,1.08825,0,100.0,0.0,1.0,0.0,0.0,1.0,1,100.0,60.5,19.0,1,1.0,0,1.0,0,1.0,0,1.0,0,1.0
901,'2',60.5,37.5,37.5,-20.2,1.08825,0,100.0,0.0,1.0,0.0,0.0,1.0,1,100.0,60.5,19.0,1,1.0,0,1.0,0,1.0,0,1.0,0,1.0
902,'1',7.5,3.55,3.55,-3.55,1.00559,0,100.0,0.0,1.0,0.0,0.0,1.0,1,100.0,7.5,0.6,1,1.0,0,1.0,0,1.0,0,1.0,0,1.0
902,'2',7.5,3.55,3.55,-3.55,1.00559,0,100.0,0.0,1.0,0.0,0.0,1.0,1,100.0,7.5,0.6,1,1.0,0,1.0,0,1.0,0,1.0,0,1.0
903,'1',25.7,2.614,5.2,-5.2,0.98381,0,100.0,0.0,1.0,0.0,0.0,1.0,1,100.0,25.7,5.0,1,1.0,0,1.0,0,1.0,0,1.0,0,1.0
904,'2',909.9,237.635,440.7,-303.3,0.99575,0,100.0,0.0,1.0,0.0,0.0,1.0,1,100.0,909.9,150.0,1,1.0,0,1.0,0,1.0,0,1.0,0,1.0
905,'2',142.633,82.934,101.0,-54.3,1.02415,0,100.0,0.0,1.0,0.0,0.0,1.0,1,100.0,163.0,58.68,1,1.0,0,1.0,0,1.0,0,1.0,0,1.0
906,'2',289.0,179.1,179.1,-96.3,0.9841,0,100.0,0.0,1.0,0.0,0.0,1.0,1,100.0,289.0,160.0,1,1.0,0,1.0,0,1.0,0,1.0,0,1.0
907,'2',280.0,93.927,173.5,-93.3,0.98344,0,100.0,0.0,1.0,0.0,0.0,1.0,1,100.0,280.0,145.0,1,1.0,0,1.0,0,1.0,0,1.0,0,1.0
908,'2',170.0,71.239,105.4,-56.7,1.01604,0,100.0,0.0,1.0,0.0,0.0,1.0,1,100.0,170.0,90.1,1,1.0,0,1.0,0,1.0,0,1.0,0,1.0
909,'2',113.6,70.4,70.4,-37.9,1.03328,0,100.0,0.0,1.0,0.0,0.0,1.0,1,100.0,113.6,45.0,1,1.0,0,1.0,0,1.0,0,1.0,0,1.0
910,'2',47.229,56.3,56.3,-25.0,1.03604,0,100.0,0.0,1.0,0.0,0.0,1.0,1,100.0,75.0,40.0,1,1.0,0,1.0,0,1.0,0,1.0,0,1.0
911,'3',51.0,31.6,31.6,-17.0,1.03568,0,100.0,0.0,1.0,0.0,0.0,1.0,1,100.0,51.0,16.0,1,1.0,0,1.0,0,1.0,0,1.0,0,1.0
912,'3',0.0,0.0,31.0,-16.7,1.03179,0,100.0,0.0,1.0,0.0,0.0,1.0,0,100.0,50.0,2.0,1,1.0,0,1.0,0,1.0,0,1.0,0,1.0
913,'3',41.8,11.551,20.2,-13.9,0.9846,0,100.0,0.0,1.0,0.0,0.0,1.0,1,100.0,41.8,10.0,1,1.0,0,1.0,0,1.0,0,1.0,0,1.0
914,'3',7.63,4.25,4.25,-2.55,0.98587,0,100.0,0.0,1.0,0.0,0.0,1.0,1,100.0,7.63,0.0,1,1.0,0,1.0,0,1.0,0,1.0,0,1.0
915,'3',23.2,13.184,14.4,-7.7,1.01086,0,100.0,0.0,1.0,0.0,0.0,1.0,1,100.0,23.2,15.0,1,1.0,0,1.0,0,1.0,0,1.0,0,1.0
916,'3',25.0,15.5,15.5,-8.3,1.05381,0,100.0,0.0,1.0,0.0,0.0,1.0,1,100.0,25.0,19.1,1,1.0,0,1.0,0,1.0,0,1.0,0,1.0
917,'3',60.5,37.5,37.5,-20.2,1.04101,0,100.0,0.0,1.0,0.0,0.0,1.0,1,100.0,60.5,19.0,1,1.0,0,1.0,0,1.0,0,1.0,0,1.0
918,'3',7.5,3.55,3.55,-3.55,0.99177,0,100.0,0.0,1.0,0.0,0.0,1.0,1,100.0,7.5,0.6,1,1.0,0,1.0,0,1.0,0,1.0,0,1.0
919,'3',280.0,93.927,173.5,-93.3,0.98344,0,100.0,0.0,1.0,0.0,0.0,1.0,1,100.0,280.0,145.0,1,1.0,0,1.0,0,1.0,0,1.0,0,1.0
920,'3',170.0,71.239,105.4,-56.7,1.01604,0,100.0,0.0,1.0,0.0,0.0,1.0,1,100.0,170.0,90.1,1,1.0,0,1.0,0,1.0,0,1.0,0,1.0
921,'3',222.692,113.385,200.9,-138.3,0.97899,0,100.0,0.0,1.0,0.0,0.0,1.0,1,100.0,414.9,125.0,1,1.0,0,1.0,0,1.0,0,1.0,0,1.0
922,'4',51.0,31.6,31.6,-17.0,1.03568,0,100.0,0.0,1.0,0.0,0.0,1.0,1,100.0,51.0,16.0,1,1.0,0,1.0,0,1.0,0,1.0,0,1.0
923,'4',0.0,0.0,31.0,-16.7,1.03179,0,100.0,0.0,1.0,0.0,0.0,1.0,0,100.0,50.0,2.0,1,1.0,0,1.0,0,1.0,0,1.0,0,1.0
924,'4',41.8,11.345,31.4,-13.9,0.98402,0,100.0,0.0,1.0,0.0,0.0,1.0,1,100.0,41.8,10.0,1,1.0,0,1.0,0,1.0,0,1.0,0,1.0
925,'4',7.63,4.25,4.25,-2.55,0.98587,0,100.0,0.0,1.0,0.0,0.0,1.0,1,100.0,7.63,0.0,1,1.0,0,1.0,0,1.0,0,1.0,0,1.0
926,'2',20.0,12.4,12.4,-6.7,1.05381,0,100.0,0.0,1.0,0.0,0.0,1.0,1,100.0,20.0,19.1,1,1.0,0,1.0,0,1.0,0,1.0,0,1.0
926,'4',25.0,15.5,15.5,-8.3,1.05381,0,100.0,0.0,1.0,0.0,0.0,1.0,1,100.0,25.0,19.1,1,1.0,0,1.0,0,1.0,0,1.0,0,1.0
927,'4',60.5,37.5,37.5,-20.2,1.04101,0,100.0,0.0,1.0,0.0,0.0,1.0,1,100.0,60.5,19.0,1,1.0,0,1.0,0,1.0,0,1.0,0,1.0
928,'4',7.5,3.55,3.55,-3.55,0.99177,0,100.0,0.0,1.0,0.0,0.0,1.0,1,100.0,7.5,0.6,1,1.0,0,1.0,0,1.0,0,1.0,0,1.0
929,'5',0.0,0.0,31.0,-16.7,1.03179,0,100.0,0.0,1.0,0.0,0.0,1.0,0,100.0,50.0,2.0,1,1.0,0,1.0,0,1.0,0,1.0,0,1.0
930,'1',20.0,12.4,12.4,-6.7,1.05381,0,100.0,0.0,1.0,0.0,0.0,1.0,1,100.0,20.0,19.6,1,1.0,0,1.0,0,1.0,0,1.0,0,1.0
930,'5',25.0,15.5,15.5,-8.3,1.05381,0,100.0,0.0,1.0,0.0,0.0,1.0,1,100.0,25.0,18.7,1,1.0,0,1.0,0,1.0,0,1.0,0,1.0
931,'1',184.2,86.253,114.2,-61.4,1.0276,0,100.0,0.0,1.0,0.0,0.0,1.0,1,100.0,184.2,105.0,1,1.0,0,1.0,0,1.0,0,1.0,0,1.0
932,'1',177.8,86.69,110.2,-59.3,1.00961,0,100.0,0.0,1.0,0.0,0.0,1.0,1,100.0,177.8,65.0,1,1.0,0,1.0,0,1.0,0,1.0,0,1.0
933,'1',4.45,0.48,2.15,-1.48,0.98083,0,100.0,0.0,1.0,0.0,0.0,1.0,1,100.0,4.45,0.0,1,1.0,0,1.0,0,1.0,0,1.0,0,1.0
933,'2',4.45,0.48,2.15,-1.48,0.98083,0,100.0,0.0,1.0,0.0,0.0,1.0,1,100.0,4.45,0.0,1,1.0,0,1.0,0,1.0,0,1.0,0,1.0
934,'1',102.6,13.501,52.6,-34.2,0.98431,0,100.0,0.0,1.0,0.0,0.0,1.0,1,100.0,102.6,5.0,1,1.0,0,1.0,0,1.0,0,1.0,0,1.0
935,'1',57.0,4.679,22.5,-22.5,0.97844,0,100.0,0.0,1.0,0.0,0.0,1.0,1,100.0,57.0,0.0,1,1.0,0,1.0,0,1.0,0,1.0,1,1.0
936,'1',0.0,0.0,33.8,-18.2,1.09287,0,100.0,0.0,1.0,0.0,0.0,1.0,0,100.0,54.5,38.0,1,1.0,0,1.0,0,1.0,0,1.0,0,1.0
936,'2',0.0,0.0,33.8,-18.2,1.09287,0,100.0,0.0,1.0,0.0,0.0,1.0,0,100.0,54.5,38.0,1,1.0,0,1.0,0,1.0,0,1.0,0,1.0
937,'1',0.0,0.0,249.9,-249.9,1.03931,0,100.0,0.0,1.0,0.0,0.0,1.0,0,100.0,632.4,60.0,1,1.0,0,1.0,0,1.0,0,1.0,0,1.0
938,'1',48.5,23.5,23.5,-16.2,1.07835,0,100.0,0.0,1.0,0.0,0.0,1.0,1,100.0,48.5,5.0,1,1.0,0,1.0,0,1.0,0,1.0,0,1.0
938,'2',68.4,42.4,42.4,-22.8,1.07835,0,100.0,0.0,1.0,0.0,0.0,1.0,1,100.0,68.4,5.0,1,1.0,0,1.0,0,1.0,0,1.0,0,1.0
939,'1',45.7,14.309,28.3,-15.2,1.00765,0,100.0,0.0,1.0,0.0,0.0,1.0,1,100.0,45.7,18.0,1,1.0,0,1.0,0,1.0,0,1.0,0,1.0
940,'1',7.42,3.6,3.6,-2.47,1.00295,0,100.0,0.0,1.0,0.0,0.0,1.0,1,100.0,7.42,0.0,1,1.0,0,1.0,0,1.0,0,1.0,0,1.0
940,'2',7.42,3.6,3.6,-2.47,1.00295,0,100.0,0.0,1.0,0.0,0.0,1.0,1,100.0,7.42,0.0,1,1.0,0,1.0,0,1.0,0,1.0,0,1.0
941,'1',42.0,4.71,16.6,-16.6,1.0,0,100.0,0.0,1.0,0.0,0.0,1.0,1,100.0,42.0,0.0,1,1.0,0,1.0,0,1.0,0,1.0,1,1.0
942,'1',39.6,19.2,19.2,-13.2,1.06627,0,100.0,0.0,1.0,0.0,0.0,1.0,1,100.0,39.6,18.0,1,1.0,0,1.0,0,1.0,0,1.0,0,1.0
943,'1',39.6,-3.296,19.2,-13.2,0.96834,0,100.0,0.0,1.0,0.0,0.0,1.0,1,100.0,39.6,18.0,1,1.0,0,1.0,0,1.0,0,1.0,0,1.0
944,'1',37.5,18.69,28.1,-12.5,1.04212,0,100.0,0.0,1.0,0.0,0.0,1.0,1,100.0,37.5,15.0,1,1.0,0,1.0,0,1.0,0,1.0,0,1.0
945,'1',30.0,10.798,14.5,-10.0,1.0009,0,100.0,0.0,1.0,0.0,0.0,1.0,1,100.0,30.0,0.0,1,1.0,0,1.0,0,1.0,0,1.0,0,1.0
945,'2',30.0,10.798,14.5,-10.0,1.0009,0,100.0,0.0,1.0,0.0,0.0,1.0,1,100.0,30.0,0.0,1,1.0,0,1.0,0,1.0,0,1.0,0,1.0
946,'1',2.23,0.6,0.6,-0.6,0.96318,0,100.0,0.0,1.0,0.0,0.0,1.0,1,100.0,2.23,0.0,1,1.0,0,1.0,0,1.0,0,1.0,0,1.0
946,'2',2.23,0.6,0.6,-0.6,0.96318,0,100.0,0.0,1.0,0.0,0.0,1.0,1,100.0,2.23,0.0,1,1.0,0,1.0,0,1.0,0,1.0,0,1.0
947,'1',14.25,8.85,8.85,-4.75,1.03186,0,100.0,0.0,1.0,0.0,0.0,1.0,1,100.0,14.25,2.0,1,1.0,0,1.0,0,1.0,0,1.0,0,1.0
947,'2',14.25,8.85,8.85,-4.75,1.03186,0,100.0,0.0,1.0,0.0,0.0,1.0,1,100.0,14.25,2.0,1,1.0,0,1.0,0,1.0,0,1.0,0,1.0
948,'1',14.2,6.9,6.9,-4.75,1.01108,0,100.0,0.0,1.0,0.0,0.0,1.0,1,100.0,14.2,0.0,1,1.0,0,1.0,0,1.0,0,1.0,0,1.0
948,'2',14.2,6.9,6.9,-4.75,1.01108,0,100.0,0.0,1.0,0.0,0.0,1.0,1,100.0,14.2,0.0,1,1.0,0,1.0,0,1.0,0,1.0,0,1.0
949,'1',27.5,17.0,17.0,-9.2,1.02481,0,100.0,0.0,1.0,0.0,0.0,1.0,1,100.0,27.5,6.0,1,1.0,0,1.0,0,1.0,0,1.0,0,1.0
950,'1',4.43,-0.016,2.97,-1.48,0.99864,0,100.0,0.0,1.0,0.0,0.0,1.0,1,100.0,4.43,1.5,1,1.0,0,1.0,0,1.0,0,1.0,0,1.0
950,'2',4.43,-0.016,2.97,-1.48,0.99864,0,100.0,0.0,1.0,0.0,0.0,1.0,1,100.0,4.43,1.5,1,1.0,0,1.0,0,1.0,0,1.0,0,1.0
951,'1',25.5,3.292,10.1,-10.1,0.98903,0,100.0,0.0,1.0,0.0,0.0,1.0,1,100.0,25.5,0.0,1,1.0,0,1.0,0,1.0,0,1.0,1,1.0
952,'1',25.3,15.7,15.7,-8.4,1.01671,0,100.0,0.0,1.0,0.0,0.0,1.0,1,100.0,25.3,5.0,1,1.0,0,1.0,0,1.0,0,1.0,0,1.0
953,'1',25.0,10.443,12.1,-8.3,0.99695,0,100.0,0.0,1.0,0.0,0.0,1.0,1,100.0,25.0,9.0,1,1.0,0,1.0,0,1.0,0,1.0,0,1.0
953,'2',25.0,10.443,12.1,-8.3,0.99695,0,100.0,0.0,1.0,0.0,0.0,1.0,1,100.0,25.0,9.0,1,1.0,0,1.0,0,1.0,0,1.0,0,1.0
954,'1',22.0,5.682,13.6,-7.3,1.00855,0,100.0,0.0,1.0,0.0,0.0,1.0,1,100.0,22.0,6.0,1,1.0,0,1.0,0,1.0,0,1.0,0,1.0
955,'1',72.0,44.6,44.6,-24.0,1.01982,0,100.0,0.0,1.0,0.0,0.0,1.0,1,100.0,72.0,10.0,1,1.0,0,1.0,0,1.0,0,1.0,0,1.0
956,'1',179.4,26.412,111.2,-59.8,0.98924,0,100.0,0.0,1.0,0.0,0.0,1.0,1,100.0,179.4,85.0,1,1.0,0,1.0,0,1.0,0,1.0,0,1.0
957,'1',21.55,-0.138,13.88,-7.18,0.97404,0,100.0,0.0,1.0,0.0,0.0,1.0,1,100.0,21.55,6.46,1,1.0,0,1.0,0,1.0,0,1.0,0,1.0
957,'2',21.55,-0.138,13.88,-7.18,0.97404,0,100.0,0.0,1.0,0.0,0.0,1.0,1,100.0,21.55,6.46,1,1.0,0,1.0,0,1.0,0,1.0,0,1.0
958,'1',30.2,0.0,0.0,0.0,1.00424,0,100.0,0.0,1.0,0.0,0.0,1.0,1,100.0,30.2,0.34,1,1.0,0,1.0,0,1.0,0,1.0,0,1.0
958,'2',20.47,11.5,11.5,-6.83,1.00424,0,100.0,0.0,1.0,0.0,0.0,1.0,1,100.0,20.47,0.34,1,1.0,0,1.0,0,1.0,0,1.0,0,1.0
959,'1',17.5,10.507,10.85,-5.85,1.0898,0,100.0,0.0,1.0,0.0,0.0,1.0,1,100.0,17.5,2.0,1,1.0,0,1.0,0,1.0,0,1.0,0,1.0
959,'2',17.5,10.507,10.85,-5.85,1.0898,0,100.0,0.0,1.0,0.0,0.0,1.0,1,100.0,17.5,2.0,1,1.0,0,1.0,0,1.0,0,1.0,0,1.0
960,'1',27.5,13.761,17.0,-9.2,1.01799,0,100.0,0.0,1.0,0.0,0.0,1.0,1,100.0,27.5,6.0,1,1.0,0,1.0,0,1.0,0,1.0,0,1.0
961,'1',23.0,14.403,17.3,-7.7,1.05253,0,100.0,0.0,1.0,0.0,0.0,1.0,1,100.0,23.0,7.0,1,1.0,0,1.0,0,1.0,0,1.0,0,1.0
961,'2',26.8,14.403,20.1,-8.9,1.05253,0,100.0,0.0,1.0,0.0,0.0,1.0,1,100.0,26.8,7.0,1,1.0,0,1.0,0,1.0,0,1.0,0,1.0
962,'2',184.2,86.253,114.2,-61.4,1.0276,0,100.0,0.0,1.0,0.0,0.0,1.0,1,100.0,184.2,105.0,1,1.0,0,1.0,0,1.0,0,1.0,0,1.0
963,'2',177.8,86.69,110.2,-59.3,1.00961,0,100.0,0.0,1.0,0.0,0.0,1.0,1,100.0,177.8,65.0,1,1.0,0,1.0,0,1.0,0,1.0,0,1.0
964,'3',4.45,1.122,2.15,-1.48,0.98083,0,100.0,0.0,1.0,0.0,0.0,1.0,1,100.0,4.45,0.0,1,1.0,0,1.0,0,1.0,0,1.0,0,1.0
965,'3',0.0,0.0,33.8,-18.2,1.0427,0,100.0,0.0,1.0,0.0,0.0,1.0,0,100.0,54.5,38.0,1,1.0,0,1.0,0,1.0,0,1.0,0,1.0
966,'2',113.6,70.4,70.4,-37.9,1.03931,0,100.0,0.0,1.0,0.0,0.0,1.0,1,100.0,113.6,30.0,1,1.0,0,1.0,0,1.0,0,1.0,0,1.0
967,'3',7.42,1.824,3.6,-2.47,0.9817,0,100.0,0.0,1.0,0.0,0.0,1.0,1,100.0,7.42,0.0,1,1.0,0,1.0,0,1.0,0,1.0,0,1.0
968,'3',2.23,0.6,0.6,-0.6,0.96073,0,100.0,0.0,1.0,0.0,0.0,1.0,1,100.0,2.23,0.0,1,1.0,0,1.0,0,1.0,0,1.0,0,1.0
969,'3',4.43,-1.48,2.97,-1.48,0.98741,0,100.0,0.0,1.0,0.0,0.0,1.0,1,100.0,4.43,1.5,1,1.0,0,1.0,0,1.0,0,1.0,0,1.0
970,'3',30.0,14.5,14.5,-10.0,0.99695,0,100.0,0.0,1.0,0.0,0.0,1.0,1,100.0,30.0,8.0,1,1.0,0,1.0,0,1.0,0,1.0,0,1.0
971,'2',186.8,93.803,115.8,-62.3,1.01982,0,100.0,0.0,1.0,0.0,0.0,1.0,1,100.0,186.8,110.0,1,1.0,0,1.0,0,1.0,0,1.0,0,1.0
972,'2',95.1,17.227,58.9,-31.7,0.98924,0,100.0,0.0,1.0,0.0,0.0,1.0,1,100.0,95.1,45.0,1,1.0,0,1.0,0,1.0,0,1.0,0,1.0
973,'3',21.55,-1.113,13.88,-7.18,0.97404,0,100.0,0.0,1.0,0.0,0.0,1.0,1,100.0,21.55,6.46,1,1.0,0,1.0,0,1.0,0,1.0,0,1.0
974,'3',20.47,11.5,11.5,-6.83,1.01454,0,100.0,0.0,1.0,0.0,0.0,1.0,1,100.0,20.47,0.34,1,1.0,0,1.0,0,1.0,0,1.0,0,1.0
975,'3',195.5,92.993,121.2,-65.2,1.0276,0,100.0,0.0,1.0,0.0,0.0,1.0,1,100.0,195.5,75.0,1,1.0,0,1.0,0,1.0,0,1.0,0,1.0
976,'3',194.6,93.973,120.6,-64.9,1.00961,0,100.0,0.0,1.0,0.0,0.0,1.0,1,100.0,194.6,40.0,1,1.0,0,1.0,0,1.0,0,1.0,0,1.0
977,'4',4.45,1.122,2.15,-1.48,0.98083,0,100.0,0.0,1.0,0.0,0.0,1.0,1,100.0,4.45,0.0,1,1.0,0,1.0,0,1.0,0,1.0,0,1.0
978,'3',50.0,31.0,31.0,-16.7,1.03931,0,100.0,0.0,1.0,0.0,0.0,1.0,1,100.0,50.0,10.0,1,1.0,0,1.0,0,1.0,0,1.0,0,1.0
979,'4',7.42,1.824,3.6,-2.47,0.9817,0,100.0,0.0,1.0,0.0,0.0,1.0,1,100.0,7.42,0.0,1,1.0,0,1.0,0,1.0,0,1.0,0,1.0
980,'4',2.23,0.6,0.6,-0.6,0.96073,0,100.0,0.0,1.0,0.0,0.0,1.0,1,100.0,2.23,0.0,1,1.0,0,1.0,0,1.0,0,1.0,0,1.0
981,'4',4.43,-1.48,2.97,-1.48,0.98741,0,100.0,0.0,1.0,0.0,0.0,1.0,1,100.0,4.43,1.5,1,1.0,0,1.0,0,1.0,0,1.0,0,1.0
982,'4',21.55,-1.113,13.88,-7.18,0.97404,0,100.0,0.0,1.0,0.0,0.0,1.0,1,100.0,21.55,6.46,1,1.0,0,1.0,0,1.0,0,1.0,0,1.0
983,'4',20.47,11.5,11.5,-6.83,1.01454,0,100.0,0.0,1.0,0.0,0.0,1.0,1,100.0,20.47,0.34,1,1.0,0,1.0,0,1.0,0,1.0,0,1.0
984,'5',4.45,1.122,2.15,-1.48,0.98083,0,100.0,0.0,1.0,0.0,0.0,1.0,1,100.0,4.45,0.0,1,1.0,0,1.0,0,1.0,0,1.0,0,1.0
985,'4',50.0,31.0,31.0,-16.7,1.03931,0,100.0,0.0,1.0,0.0,0.0,1.0,1,100.0,50.0,10.0,1,1.0,0,1.0,0,1.0,0,1.0,0,1.0
986,'5',7.42,1.824,3.6,-2.47,0.9817,0,100.0,0.0,1.0,0.0,0.0,1.0,1,100.0,7.42,0.0,1,1.0,0,1.0,0,1.0,0,1.0,0,1.0
987,'5',2.23,0.6,0.6,-0.6,0.96073,0,100.0,0.0,1.0,0.0,0.0,1.0,1,100.0,2.23,0.0,1,1.0,0,1.0,0,1.0,0,1.0,0,1.0
988,'5',4.43,-1.48,2.97,-1.48,0.98741,0,100.0,0.0,1.0,0.0,0.0,1.0,1,100.0,4.43,1.5,1,1.0,0,1.0,0,1.0,0,1.0,0,1.0
989,'5',23.5,-1.094,14.6,-7.8,0.97404,0,100.0,0.0,1.0,0.0,0.0,1.0,1,100.0,23.5,8.46,1,1.0,0,1.0,0,1.0,0,1.0,0,1.0
990,'6',4.45,1.122,2.15,-1.48,0.98083,0,100.0,0.0,1.0,0.0,0.0,1.0,1,100.0,4.45,0.0,1,1.0,0,1.0,0,1.0,0,1.0,0,1.0
991,'6',7.42,1.824,3.6,-2.47,0.9817,0,100.0,0.0,1.0,0.0,0.0,1.0,1,100.0,7.42,0.0,1,1.0,0,1.0,0,1.0,0,1.0,0,1.0
992,'6',2.23,0.6,0.6,-0.6,0.96073,0,100.0,0.0,1.0,0.0,0.0,1.0,1,100.0,2.23,0.0,1,1.0,0,1.0,0,1.0,0,1.0,0,1.0
993,'6',4.43,-1.48,2.97,-1.48,0.98741,0,100.0,0.0,1.0,0.0,0.0,1.0,1,100.0,4.43,1.5,1,1.0,0,1.0,0,1.0,0,1.0,0,1.0
994,'6',31.5,-0.898,19.5,-10.5,0.97404,0,100.0,0.0,1.0,0.0,0.0,1.0,1,100.0,31.5,11.34,1,1.0,0,1.0,0,1.0,0,1.0,0,1.0
995,'7',4.45,1.122,2.15,-1.48,0.98083,0,100.0,0.0,1.0,0.0,0.0,1.0,1,100.0,4.45,0.0,1,1.0,0,1.0,0,1.0,0,1.0,0,1.0
996,'7',2.23,0.6,0.6,-0.6,0.96073,0,100.0,0.0,1.0,0.0,0.0,1.0,1,100.0,2.23,0.0,1,1.0,0,1.0,0,1.0,0,1.0,0,1.0
997,'8',4.45,1.122,2.15,-1.48,0.98083,0,100.0,0.0,1.0,0.0,0.0,1.0,1,100.0,4.45,0.0,1,1.0,0,1.0,0,1.0,0,1.0,0,1.0
998,'8',2.23,0.6,0.6,-0.6,0.96073,0,100.0,0.0,1.0,0.0,0.0,1.0,1,100.0,2.23,0.0,1,1.0,0,1.0,0,1.0,0,1.0,0,1.0
999,'9',4.45,1.122,2.15,-1.48,0.98083,0,100.0,0.0,1.0,0.0,0.0,1.0,1,100.0,4.45,0.0,1,1.0,0,1.0,0,1.0,0,1.0,0,1.0
1000,'9',2.23,0.6,0.6,-0.6,0.96073,0,100.0,0.0,1.0,0.0,0.0,1.0,1,100.0,2.23,0.0,1,1.0,0,1.0,0,1.0,0,1.0,0,1.0
1001,'10',4.45,1.122,2.15,-1.48,0.98083,0,100.0,0.0,1.0,0.0,0.0,1.0,1,100.0,4.45,0.0,1,1.0,0,1.0,0,1.0,0,1.0,0,1.0
1002,'10',2.23,0.6,0.6,-0.6,0.96073,0,100.0,0.0,1.0,0.0,0.0,1.0,1,100.0,2.23,0.0,1,1.0,0,1.0,0,1.0,0,1.0,0,1.0
1003,'11',4.45,1.122,2.15,-1.48,0.98083,0,100.0,0.0,1.0,0.0,0.0,1.0,1,100.0,4.45,0.0,1,1.0,0,1.0,0,1.0,0,1.0,0,1.0
1004,'11',2.23,0.6,0.6,-0.6,0.96073,0,100.0,0.0,1.0,0.0,0.0,1.0,1,100.0,2.23,0.0,1,1.0,0,1.0,0,1.0,0,1.0,0,1.0
1005,'12',4.45,1.122,2.15,-1.48,0.98083,0,100.0,0.0,1.0,0.0,0.0,1.0,1,100.0,4.45,0.0,1,1.0,0,1.0,0,1.0,0,1.0,0,1.0
1006,'12',2.23,0.6,0.6,-0.6,0.96073,0,100.0,0.0,1.0,0.0,0.0,1.0,1,100.0,2.23,0.0,1,1.0,0,1.0,0,1.0,0,1.0,0,1.0
1007,'13',4.45,1.122,2.15,-1.48,0.98083,0,100.0,0.0,1.0,0.0,0.0,1.0,1,100.0,4.45,0.0,1,1.0,0,1.0,0,1.0,0,1.0,0,1.0
1008,'13',2.23,0.6,0.6,-0.6,0.96073,0,100.0,0.0,1.0,0.0,0.0,1.0,1,100.0,2.23,0.0,1,1.0,0,1.0,0,1.0,0,1.0,0,1.0
1009,'14',4.45,1.122,2.15,-1.48,0.98083,0,100.0,0.0,1.0,0.0,0.0,1.0,1,100.0,4.45,0.0,1,1.0,0,1.0,0,1.0,0,1.0,0,1.0
1010,'15',4.45,1.122,2.15,-1.48,0.98083,0,100.0,0.0,1.0,0.0,0.0,1.0,1,100.0,4.45,0.0,1,1.0,0,1.0,0,1.0,0,1.0,0,1.0
1011,'16',4.45,1.122,2.15,-1.48,0.98083,0,100.0,0.0,1.0,0.0,0.0,1.0,1,100.0,4.45,0.0,1,1.0,0,1.0,0,1.0,0,1.0,0,1.0
1012,'17',4.45,1.122,2.15,-1.48,0.98083,0,100.0,0.0,1.0,0.0,0.0,1.0,1,100.0,4.45,0.0,1,1.0,0,1.0,0,1.0,0,1.0,0,1.0
1013,'18',4.45,1.122,2.15,-1.48,0.98083,0,100.0,0.0,1.0,0.0,0.0,1.0,1,100.0,4.45,0.0,1,1.0,0,1.0,0,1.0,0,1.0,0,1.0
1014,'19',4.45,1.122,2.15,-1.48,0.98083,0,100.0,0.0,1.0,0.0,0.0,1.0,1,100.0,4.45,0.0,1,1.0,0,1.0,0,1.0,0,1.0,0,1.0
1015,'20',4.45,1.122,2.15,-1.48,0.98083,0,100.0,0.0,1.0,0.0,0.0,1.0,1,100.0,4.45,0.0,1,1.0,0,1.0,0,1.0,0,1.0,0,1.0
1016,'21',4.45,1.122,2.15,-1.48,0.98083,0,100.0,0.0,1.0,0.0,0.0,1.0,1,100.0,4.45,0.0,1,1.0,0,1.0,0,1.0,0,1.0,0,1.0
1017,'22',4.45,1.122,2.15,-1.48,0.98083,0,100.0,0.0,1.0,0.0,0.0,1.0,1,100.0,4.45,0.0,1,1.0,0,1.0,0,1.0,0,1.0,0,1.0
1018,'23',4.45,1.122,2.15,-1.48,0.98083,0,100.0,0.0,1.0,0.0,0.0,1.0,1,100.0,4.45,0.0,1,1.0,0,1.0,0,1.0,0,1.0,0,1.0
1019,'24',4.45,1.122,2.15,-1.48,0.98083,0,100.0,0.0,1.0,0.0,0.0,1.0,1,100.0,4.45,0.0,1,1.0,0,1.0,0,1.0,0,1.0,0,1.0
1020,'25',4.45,1.122,2.15,-1.48,0.98083,0,100.0,0.0,1.0,0.0,0.0,1.0,1,100.0,4.45,0.0,1,1.0,0,1.0,0,1.0,0,1.0,0,1.0
1021,'26',4.45,1.122,2.15,-1.48,0.98083,0,100.0,0.0,1.0,0.0,0.0,1.0,1,100.0,4.45,0.0,1,1.0,0,1.0,0,1.0,0,1.0,0,1.0
1022,'27',4.45,1.122,2.15,-1.48,0.98083,0,100.0,0.0,1.0,0.0,0.0,1.0,1,100.0,4.45,0.0,1,1.0,0,1.0,0,1.0,0,1.0,0,1.0
1023,'28',4.45,1.122,2.15,-1.48,0.98083,0,100.0,0.0,1.0,0.0,0.0,1.0,1,100.0,4.45,0.0,1,1.0,0,1.0,0,1.0,0,1.0,0,1.0
1024,'29',4.45,1.122,2.15,-1.48,0.98083,0,100.0,0.0,1.0,0.0,0.0,1.0,1,100.0,4.45,0.0,1,1.0,0,1.0,0,1.0,0,1.0,0,1.0
1025,'30',4.45,1.122,2.15,-1.48,0.98083,0,100.0,0.0,1.0,0.0,0.0,1.0,1,100.0,4.45,0.0,1,1.0,0,1.0,0,1.0,0,1.0,0,1.0
1026,'31',4.45,1.122,2.15,-1.48,0.98083,0,100.0,0.0,1.0,0.0,0.0,1.0,1,100.0,4.45,0.0,1,1.0,0,1.0,0,1.0,0,1.0,0,1.0
1027,'1',0.0,0.0,190.6,-190.6,1.00816,0,100.0,0.0,1.0,0.0,0.0,1.0,0,100.0,580.0,170.0,1,1.0,0,1.0,0,1.0,0,1.0,0,1.0
1028,'1',85.0,30.477,41.2,-28.3,1.00403,0,100.0,0.0,1.0,0.0,0.0,1.0,1,100.0,85.0,55.0,1,1.0,0,1.0,0,1.0,0,1.0,0,1.0
1029,'1',51.781,91.619,145.3,-100.0,0.98345,0,100.0,0.0,1.0,0.0,0.0,1.0,1,100.0,300.0,0.0,1,1.0,0,1.0,0,1.0,0,1.0,0,1.0
1030,'1',289.0,192.059,216.8,-96.3,0.98382,0,100.0,0.0,1.0,0.0,0.0,1.0,1,100.0,289.0,155.0,1,1.0,0,1.0,0,1.0,0,1.0,0,1.0
1031,'1',289.0,179.1,179.1,-96.3,0.98412,0,100.0,0.0,1.0,0.0,0.0,1.0,1,100.0,289.0,150.0,1,1.0,0,1.0,0,1.0,0,1.0,0,1.0
1032,'1',289.0,118.022,179.1,-96.3,0.98332,0,100.0,0.0,1.0,0.0,0.0,1.0,1,100.0,289.0,150.0,1,1.0,0,1.0,0,1.0,0,1.0,0,1.0
1033,'1',249.982,55.336,298.8,-205.7,0.98393,0,100.0,0.0,1.0,0.0,0.0,1.0,1,100.0,617.0,90.0,1,1.0,0,1.0,0,1.0,0,1.0,0,1.0
1034,'1',278.6,172.7,172.7,-92.9,0.98357,0,100.0,0.0,1.0,0.0,0.0,1.0,1,100.0,278.6,140.0,1,1.0,0,1.0,0,1.0,0,1.0,0,1.0
1035,'1',20.0,12.4,12.4,-6.7,1.07476,0,100.0,0.0,1.0,0.0,0.0,1.0,1,100.0,20.0,12.0,1,1.0,0,1.0,0,1.0,0,1.0,0,1.0
1036,'1',264.201,114.222,230.3,-158.5,0.98355,0,100.0,0.0,1.0,0.0,0.0,1.0,1,100.0,475.5,50.0,1,1.0,0,1.0,0,1.0,0,1.0,0,1.0
1037,'1',63.869,21.739,77.2,-77.2,0.99726,0,100.0,0.0,1.0,0.0,0.0,1.0,1,100.0,235.0,0.0,1,1.0,0,1.0,0,1.0,0,1.0,0,1.0
1038,'1',230.0,75.6,75.6,-75.6,1.01361,0,100.0,0.0,1.0,0.0,0.0,1.0,1,100.0,230.0,75.0,1,1.0,0,1.0,0,1.0,0,1.0,0,1.0
1039,'1',200.0,123.9,123.9,-66.7,1.06966,0,100.0,0.0,1.0,0.0,0.0,1.0,1,100.0,200.0,108.0,1,1.0,0,1.0,0,1.0,0,1.0,0,1.0
1040,'1',0.0,0.0,84.3,-45.3,1.03291,0,100.0,0.0,1.0,0.0,0.0,1.0,0,100.0,136.0,60.0,1,1.0,0,1.0,0,1.0,0,1.0,0,1.0
1041,'1',128.7,32.3,32.3,-32.3,1.00748,0,100.0,0.0,1.0,0.0,0.0,1.0,1,100.0,128.7,32.0,1,1.0,0,1.0,0,1.0,0,1.0,0,1.0
1042,'1',69.0,33.4,33.4,-23.0,1.0048,0,100.0,0.0,1.0,0.0,0.0,1.0,1,100.0,69.0,5.0,1,1.0,0,1.0,0,1.0,0,1.0,0,1.0
1043,'1',10.3,3.326,7.73,-3.43,1.00736,0,100.0,0.0,1.0,0.0,0.0,1.0,1,100.0,10.3,0.0,1,1.0,0,1.0,0,1.0,0,1.0,0,1.0
1043,'2',10.3,3.326,7.73,-3.43,1.00736,0,100.0,0.0,1.0,0.0,0.0,1.0,1,100.0,10.3,0.0,1,1.0,0,1.0,0,1.0,0,1.0,0,1.0
1044,'1',113.6,70.4,70.4,-37.9,1.0615,0,100.0,0.0,1.0,0.0,0.0,1.0,1,100.0,113.6,30.0,1,1.0,0,1.0,0,1.0,0,1.0,0,1.0
1044,'2',0.0,0.0,37.2,-20.0,1.0615,0,100.0,0.0,1.0,0.0,0.0,1.0,0,100.0,60.0,25.0,1,1.0,0,1.0,0,1.0,0,1.0,0,1.0
1045,'1',57.9,19.903,35.9,-19.3,1.07554,0,100.0,0.0,1.0,0.0,0.0,1.0,1,100.0,57.9,32.0,1,1.0,0,1.0,0,1.0,0,1.0,0,1.0
...
0 / END OF GENERATOR DATA BEGIN BRANCH DATA
896,915,'1',1e-07,1e-05,0.0,200.0,200.0,200.0,0.0,0.0,0.0,0.0,0,1,0.0,1,1.0,0,1.0,0,1.0,0,1.0
936,965,'1',1e-07,1e-05,0.0,200.0,200.0,200.0,0.0,0.0,0.0,0.0,0,1,0.0,1,1.0,0,1.0,0,1.0,0,1.0
1048,1084,'1',1e-07,1e-05,0.0,200.0,200.0,200.0,0.0,0.0,0.0,0.0,0,1,0.0,1,1.0,0,1.0,0,1.0,0,1.0
1049,1085,'1',1e-07,1e-05,0.0,200.0,200.0,200.0,0.0,0.0,0.0,0.0,1,1,0.0,1,1.0,0,1.0,0,1.0,0,1.0
1052,1133,'1',1e-07,1e-05,0.0,200.0,200.0,200.0,0.0,0.0,0.0,0.0,1,1,0.0,1,1.0,0,1.0,0,1.0,0,1.0
1085,1102,'1',1e-07,1e-05,0.0,200.0,200.0,200.0,0.0,0.0,0.0,0.0,1,1,0.0,1,1.0,0,1.0,0,1.0,0,1.0
1086,1133,'1',1e-07,1e-05,0.0,200.0,200.0,200.0,0.0,0.0,0.0,0.0,1,1,0.0,1,1.0,0,1.0,0,1.0,0,1.0
1206,1214,'1',1e-07,1e-05,0.0,200.0,200.0,200.0,0.0,0.0,0.0,0.0,0,1,0.0,1,1.0,0,1.0,0,1.0,0,1.0
1229,1353,'1',0.0089875,0.02157,0.00031,55.0,37.0,75.0,0.0,0.0,0.0,0.0,1,1,1.2,1,1.0,0,1.0,0,1.0,0,1.0
1229,1666,'1',0.0165583,0.03974,0.00051,55.0,24.0,75.0,0.0,0.0,0.0,0.0,1,1,2.2,1,1.0,0,1.0,0,1.0,0,1.0
1229,1669,'1',0.01119,0.04958,0.00149,103.0,103.0,113.3,0.0,0.0,0.0,0.0,1,1,4.2,1,1.0,0,1.0,0,1.0,0,1.0
1229,1818,'1',0.05788,0.14879,0.0023,59.0,59.0,64.9,0.0,0.0,0.0,0.0,1,1,9.0,1,1.0,0,1.0,0,1.0,0,1.0
1230,1515,'1',0.00457,0.02567,0.00048,103.0,103.0,113.3,0.0,0.0,0.0,0.0,1,1,1.7,1,1.0,0,1.0,0,1.0,0,1.0
1230,1519,'1',0.00719,0.01848,0.00029,59.0,59.0,64.9,0.0,0.0,0.0,0.0,1,1,1.1,1,1.0,0,1.0,0,1.0,0,1.0
1231,1648,'1',0.004825,0.01158,0.00022,55.0,24.0,75.0,0.0,0.0,0.0,0.0,1,1,0.8,1,1.0,0,1.0,0,1.0,0,1.0
1231,1650,'1',0.00371,0.01297,0.00027,80.0,80.0,88.0,0.0,0.0,0.0,0.0,1,1,0.9,1,1.0,0,1.0,0,1.0,0,1.0
1232,1542,'1',0.00459,0.01181,0.00018,59.0,59.0,64.9,0.0,0.0,0.0,0.0,1,1,0.7,1,1.0,0,1.0,0,1.0,0,1.0
1232,1543,'1',0.0124583,0.0299,0.00049,55.0,35.0,75.0,0.0,0.0,0.0,0.0,1,1,1.8,1,1.0,0,1.0,0,1.0,0,1.0
1233,1519,'1',0.00319,0.01558,0.00033,96.0,96.0,105.6,0.0,0.0,0.0,0.0,1,1,1.1,1,1.0,0,1.0,0,1.0,0,1.0
1233,1888,'1',0.00521,0.01339,0.00021,59.0,59.0,64.9,0.0,0.0,0.0,0.0,1,1,0.8,1,1.0,0,1.0,0,1.0,0,1.0
1235,1236,'1',0.0216458,0.05195,0.00076,55.0,24.0,75.0,0.0,0.0,0.0,0.0,1,1,3.0,1,1.0,0,1.0,0,1.0,0,1.0
1236,1238,'1',0.01107,0.02845,0.00044,59.0,59.0,64.9,0.0,0.0,0.0,0.0,1,1,1.7,1,1.0,0,1.0,0,1.0,0,1.0
1237,1242,'1',0.0148458,0.03563,0.00048,55.0,30.0,75.0,0.0,0.0,0.0,0.0,1,1,2.0,1,1.0,0,1.0,0,1.0,0,1.0
1237,1251,'1',0.0109583,0.0263,0.00041,55.0,35.0,75.0,0.0,0.0,0.0,0.0,1,1,1.5,1,1.0,0,1.0,0,1.0,0,1.0
1239,1240,'1',0.00868333,0.02084,0.00026,55.0,24.0,75.0,0.0,0.0,0.0,0.0,1,1,1.1,1,1.0,0,1.0,0,1.0,0,1.0
1240,1247,'1',0.00955417,0.02293,0.00029,55.0,24.0,75.0,0.0,0.0,0.0,0.0,1,1,1.2,1,1.0,0,1.0,0,1.0,0,1.0
1240,1786,'1',0.00755,0.01942,0.0003,59.0,59.0,64.9,0.0,0.0,0.0,0.0,1,1,1.2,1,1.0,0,1.0,0,1.0,0,1.0
1242,1243,'1',0.0104458,0.02507,0.00035,55.0,33.0,75.0,0.0,0.0,0.0,0.0,1,1,1.4,1,1.0,0,1.0,0,1.0,0,1.0
1243,1259,'1',0.00629167,0.0151,0.00024,55.0,24.0,75.0,0.0,0.0,0.0,0.0,1,1,0.9,1,1.0,0,1.0,0,1.0,0,1.0
1248,1250,'1',0.01665,0.03996,0.00076,55.0,24.0,75.0,0.0,0.0,0.0,0.0,1,1,2.6,1,1.0,0,1.0,0,1.0,0,1.0
1249,1252,'1',0.00616,0.05739,0.00111,141.0,141.0,155.1,0.0,0.0,0.0,0.0,1,1,3.9,1,1.0,0,1.0,0,1.0,0,1.0
1250,1253,'1',0.0113833,0.02732,0.00036,55.0,28.0,75.0,0.0,0.0,0.0,0.0,1,1,1.5,1,1.0,0,1.0,0,1.0,0,1.0
1251,1258,'1',0.0105,0.0252,0.00047,55.0,41.0,75.0,0.0,0.0,0.0,0.0,1,1,1.6,1,1.0,0,1.0,0,1.0,0,1.0
1252,1254,'1',0.00367,0.01128,0.00021,71.0,71.0,78.1,0.0,0.0,0.0,0.0,1,1,0.7,1,1.0,0,1.0,0,1.0,0,1.0
1252,1258,'1',0.00668,0.02559,0.00072,92.0,92.0,101.2,0.0,0.0,0.0,0.0,1,1,2.1,1,1.0,0,1.0,0,1.0,0,1.0
1253,1788,'1',0.00660833,0.01586,0.00024,57.0,57.0,62.7,0.0,0.0,0.0,0.0,1,1,0.9,1,1.0,0,1.0,0,1.0,0,1.0
1254,1788,'1',0.00674,0.01733,0.00027,59.0,59.0,64.9,0.0,0.0,0.0,0.0,1,1,1.0,1,1.0,0,1.0,0,1.0,0,1.0
1255,1256,'1',0.005975,0.01434,0.00018,55.0,24.0,75.0,0.0,0.0,0.0,0.0,1,1,0.8,1,1.0,0,1.0,0,1.0,0,1.0
1256,1272,'1',0.00807,0.02074,0.00032,59.0,59.0,64.9,0.0,0.0,0.0,0.0,1,1,1.3,1,1.0,0,1.0,0,1.0,0,1.0
1256,1789,'1',0.0044,0.01694,0.00029,80.0,80.0,88.0,0.0,0.0,0.0,0.0,1,1,1.1,1,1.0,0,1.0,0,1.0,0,1.0
1257,1789,'1',0.005825,0.01398,0.00022,55.0,28.0,75.0,0.0,0.0,0.0,0.0,1,1,0.8,1,1.0,0,1.0,0,1.0,0,1.0
1258,1789,'1',0.00337,0.01124,0.00018,71.0,71.0,78.1,0.0,0.0,0.0,0.0,1,1,0.7,1,1.0,0,1.0,0,1.0,0,1.0
1259,1260,'1',0.00308333,0.0074,0.00018,59.0,59.0,64.9,0.0,0.0,0.0,0.0,1,1,0.6,1,1.0,0,1.0,0,1.0,0,1.0
1261,1263,'1',0.00585833,0.01406,0.00026,57.0,57.0,62.7,0.0,0.0,0.0,0.0,1,1,0.9,1,1.0,0,1.0,0,1.0,0,1.0
1263,1265,'1',0.00471667,0.01132,0.00017,55.0,41.0,75.0,0.0,0.0,0.0,0.0,1,1,0.7,1,1.0,0,1.0,0,1.0,0,1.0
1263,1271,'1',0.00896,0.02303,0.00036,59.0,59.0,64.9,0.0,0.0,0.0,0.0,1,1,1.4,1,1.0,0,1.0,0,1.0,0,1.0
1264,1265,'1',0.00249167,0.00598,0.00013,55.0,33.0,75.0,0.0,0.0,0.0,0.0,1,1,0.4,1,1.0,0,1.0,0,1.0,0,1.0
1264,1266,'1',0.00580833,0.01394,0.0002,55.0,39.0,75.0,0.0,0.0,0.0,0.0,1,1,0.8,1,1.0,0,1.0,0,1.0,0,1.0
1266,1267,'1',0.00455833,0.01094,0.00016,57.0,57.0,62.7,0.0,0.0,0.0,0.0,1,1,0.6,1,1.0,0,1.0,0,1.0,0,1.0
1266,1268,'1',0.00747083,0.01793,0.00027,55.0,24.0,75.0,0.0,0.0,0.0,0.0,1,1,1.1,1,1.0,0,1.0,0,1.0,0,1.0
1267,1790,'1',0.005025,0.01206,0.00028,55.0,41.0,75.0,0.0,0.0,0.0,0.0,1,1,0.9,1,1.0,0,1.0,0,1.0,0,1.0
1269,1270,'1',0.00667,0.02565,0.00044,80.0,80.0,88.0,0.0,0.0,0.0,0.0,1,1,1.6,1,1.0,0,1.0,0,1.0,0,1.0
1269,1793,'1',0.00467,0.02873,0.00052,110.0,110.0,121.0,0.0,0.0,0.0,0.0,1,1,1.9,1,1.0,0,1.0,0,1.0,0,1.0
1270,1271,'1',0.0054,0.01801,0.00029,71.0,71.0,78.1,0.0,0.0,0.0,0.0,1,1,1.1,1,1.0,0,1.0,0,1.0,0,1.0
1273,1792,'1',0.00311,0.0175,0.00038,110.0,110.0,121.0,0.0,0.0,0.0,0.0,1,1,1.2,1,1.0,0,1.0,0,1.0,0,1.0
1274,1275,'1',0.0150375,0.03609,0.00057,55.0,24.0,75.0,0.0,0.0,0.0,0.0,1,1,2.2,1,1.0,0,1.0,0,1.0,0,1.0
1276,1277,'1',0.00810833,0.01946,0.00044,59.0,59.0,64.9,0.0,0.0,0.0,0.0,1,1,1.4,1,1.0,0,1.0,0,1.0,0,1.0
1276,1294,'1',0.0117,0.02808,0.00069,59.0,59.0,64.9,0.0,0.0,0.0,0.0,1,1,2.1,1,1.0,0,1.0,0,1.0,0,1.0
1276,1798,'1',0.00827917,0.01987,0.00038,55.0,24.0,75.0,0.0,0.0,0.0,0.0,1,1,1.3,1,1.0,0,1.0,0,1.0,0,1.0
1277,1278,'1',0.00763333,0.01832,0.00024,55.0,30.0,75.0,0.0,0.0,0.0,0.0,1,1,1.0,1,1.0,0,1.0,0,1.0,0,1.0
1277,1284,'1',0.00825417,0.01981,0.00029,55.0,24.0,75.0,0.0,0.0,0.0,0.0,1,1,1.2,1,1.0,0,1.0,0,1.0,0,1.0
1277,1295,'1',0.0209833,0.05036,0.00078,55.0,28.0,75.0,0.0,0.0,0.0,0.0,1,1,3.0,1,1.0,0,1.0,0,1.0,0,1.0
1277,1799,'1',0.0230417,0.0553,0.00095,55.0,41.0,75.0,0.0,0.0,0.0,0.0,1,1,3.4,1,1.0,0,1.0,0,1.0,0,1.0
1278,1283,'1',0.00550833,0.01322,0.00017,55.0,24.0,75.0,0.0,0.0,0.0,0.0,1,1,0.7,1,1.0,0,1.0,0,1.0,0,1.0
1279,1280,'1',0.0073125,0.01755,0.00024,55.0,24.0,75.0,0.0,0.0,0.0,0.0,1,1,1.0,1,1.0,0,1.0,0,1.0,0,1.0
1280,1283,'1',0.00899583,0.02159,0.00028,55.0,24.0,75.0,0.0,0.0,0.0,0.0,1,1,1.2,1,1.0,0,1.0,0,1.0,0,1.0
1281,1795,'1',0.00548333,0.01316,0.00021,55.0,24.0,75.0,0.0,0.0,0.0,0.0,1,1,0.8,1,1.0,0,1.0,0,1.0,0,1.0
1282,1283,'1',0.00472083,0.01133,0.00014,55.0,24.0,75.0,0.0,0.0,0.0,0.0,1,1,0.6,1,1.0,0,1.0,0,1.0,0,1.0
1282,1795,'1',0.004875,0.0117,0.00016,55.0,30.0,75.0,0.0,0.0,0.0,0.0,1,1,0.6,1,1.0,0,1.0,0,1.0,0,1.0
1283,1794,'1',0.00646667,0.01552,0.00022,55.0,35.0,75.0,0.0,0.0,0.0,0.0,1,1,0.9,1,1.0,0,1.0,0,1.0,0,1.0
1284,1800,'1',0.00602917,0.01447,0.00019,55.0,24.0,75.0,0.0,0.0,0.0,0.0,1,1,0.8,1,1.0,0,1.0,0,1.0,0,1.0
1285,1794,'1',0.0044,0.01056,0.00013,55.0,24.0,75.0,0.0,0.0,0.0,0.0,1,1,0.6,1,1.0,0,1.0,0,1.0,0,1.0
1286,1287,'1',0.00697083,0.01673,0.00021,55.0,24.0,75.0,0.0,0.0,0.0,0.0,1,1,0.9,1,1.0,0,1.0,0,1.0,0,1.0
1287,1288,'1',0.00283333,0.0068,0.00013,55.0,24.0,75.0,0.0,0.0,0.0,0.0,1,1,0.4,1,1.0,0,1.0,0,1.0,0,1.0
1288,1796,'1',0.00470417,0.01129,0.00015,55.0,30.0,75.0,0.0,0.0,0.0,0.0,1,1,0.6,1,1.0,0,1.0,0,1.0,0,1.0
1289,1290,'1',0.00404167,0.0097,0.00014,55.0,41.0,75.0,0.0,0.0,0.0,0.0,1,1,0.6,1,1.0,0,1.0,0,1.0,0,1.0
1290,1291,'1',0.0081375,0.01953,0.0003,55.0,24.0,75.0,0.0,0.0,0.0,0.0,1,1,1.2,1,1.0,0,1.0,0,1.0,0,1.0
1292,1293,'1',0.012125,0.0291,0.00037,55.0,24.0,75.0,0.0,0.0,0.0,0.0,1,1,1.6,1,1.0,0,1.0,0,1.0,0,1.0
1293,1294,'1',0.0144,0.03701,0.00057,59.0,59.0,64.9,0.0,0.0,0.0,0.0,1,1,2.2,1,1.0,0,1.0,0,1.0,0,1.0
1296,1297,'1',0.00702,0.01805,0.00028,59.0,59.0,64.9,0.0,0.0,0.0,0.0,1,1,1.1,1,1.0,0,1.0,0,1.0,0,1.0
1296,1811,'1',0.00525,0.0135,0.00021,59.0,59.0,64.9,0.0,0.0,0.0,0.0,1,1,0.8,1,1.0,0,1.0,0,1.0,0,1.0
1297,1298,'1',0.00941667,0.0226,0.0003,55.0,30.0,75.0,0.0,0.0,0.0,0.0,1,1,1.2,1,1.0,0,1.0,0,1.0,0,1.0
1298,1334,'1',0.020625,0.0495,0.00087,55.0,24.0,75.0,0.0,0.0,0.0,0.0,1,1,3.1,1,1.0,0,1.0,0,1.0,0,1.0
1299,1303,'1',0.00624167,0.01498,0.00019,55.0,24.0,75.0,0.0,0.0,0.0,0.0,1,1,0.8,1,1.0,0,1.0,0,1.0,0,1.0
1300,1803,'1',0.00661667,0.01588,0.0002,55.0,24.0,75.0,0.0,0.0,0.0,0.0,1,1,0.9,1,1.0,0,1.0,0,1.0,0,1.0
1301,1809,'1',0.00572917,0.01375,0.00019,55.0,30.0,75.0,0.0,0.0,0.0,0.0,1,1,0.8,1,1.0,0,1.0,0,1.0,0,1.0
1302,1809,'1',0.00585417,0.01405,0.00018,55.0,24.0,75.0,0.0,0.0,0.0,0.0,1,1,0.8,1,1.0,0,1.0,0,1.0,0,1.0
1303,1304,'1',0.00582083,0.01397,0.00018,55.0,24.0,75.0,0.0,0.0,0.0,0.0,1,1,0.8,1,1.0,0,1.0,0,1.0,0,1.0
1303,1804,'1',0.00726667,0.01744,0.00024,55.0,35.0,75.0,0.0,0.0,0.0,0.0,1,1,1.0,1,1.0,0,1.0,0,1.0,0,1.0
1307,1806,'1',0.003675,0.00882,0.00011,55.0,24.0,75.0,0.0,0.0,0.0,0.0,1,1,0.5,1,1.0,0,1.0,0,1.0,0,1.0
1310,1829,'1',0.0034125,0.00819,0.0001,55.0,24.0,75.0,0.0,0.0,0.0,0.0,1,1,0.4,1,1.0,0,1.0,0,1.0,0,1.0
1311,1812,'1',0.00465833,0.01118,0.0002,55.0,37.0,75.0,0.0,0.0,0.0,0.0,1,1,0.7,1,1.0,0,1.0,0,1.0,0,1.0
1312,1313,'1',0.00427083,0.01025,0.00019,59.0,59.0,64.9,0.0,0.0,0.0,0.0,1,1,0.7,1,1.0,0,1.0,0,1.0,0,1.0
1312,1330,'1',0.01066,0.0274,0.00042,59.0,59.0,64.9,0.0,0.0,0.0,0.0,1,1,1.7,1,1.0,0,1.0,0,1.0,0,1.0
1312,1812,'1',0.0075,0.01862,0.00031,59.0,59.0,64.9,0.0,0.0,0.0,0.0,1,1,1.2,1,1.0,0,1.0,0,1.0,0,1.0
1313,1812,'1',0.00336,0.00864,0.00013,59.0,59.0,64.9,0.0,0.0,0.0,0.0,1,1,0.5,1,1.0,0,1.0,0,1.0,0,1.0
1314,1315,'1',0.00101,0.00727,0.00024,141.0,141.0,155.1,0.0,0.0,0.0,0.0,1,1,0.6,1,1.0,0,1.0,0,1.0,0,1.0
1315,1327,'1',0.00313,0.0112,0.00022,80.0,80.0,88.0,0.0,0.0,0.0,0.0,1,1,0.8,1,1.0,0,1.0,0,1.0,0,1.0
1315,1327,'2',0.00313,0.0112,0.00022,80.0,80.0,88.0,0.0,0.0,0.0,0.0,1,1,0.8,1,1.0,0,1.0,0,1.0,0,1.0
1315,1332,'1',0.0097,0.03202,0.00052,71.0,71.0,78.1,0.0,0.0,0.0,0.0,1,1,2.0,1,1.0,0,1.0,0,1.0,0,1.0
1315,1813,'1',0.00378,0.01964,0.00043,103.0,103.0,113.3,0.0,0.0,0.0,0.0,1,1,1.4,1,1.0,0,1.0,0,1.0,0,1.0
1316,1317,'1',0.00169,0.00564,9e-05,71.0,71.0,78.1,0.0,0.0,0.0,0.0,0,1,0.3,1,1.0,0,1.0,0,1.0,0,1.0
1316,1323,'1',0.0028,0.00804,0.00012,64.0,64.0,70.4,0.0,0.0,0.0,0.0,1,1,0.5,1,1.0,0,1.0,0,1.0,0,1.0
1317,1813,'1',0.00171,0.00569,9e-05,71.0,71.0,78.1,0.0,0.0,0.0,0.0,1,1,0.3,1,1.0,0,1.0,0,1.0,0,1.0
1318,1319,'1',0.0013,0.00732,0.00014,103.0,103.0,113.3,0.0,0.0,0.0,0.0,1,1,0.5,1,1.0,0,1.0,0,1.0,0,1.0
1318,1813,'1',0.00324,0.0158,0.00027,92.0,92.0,101.2,0.0,0.0,0.0,0.0,1,1,1.0,1,1.0,0,1.0,0,1.0,0,1.0
1319,1320,'1',0.0021125,0.00507,0.0001,55.0,24.0,75.0,0.0,0.0,0.0,0.0,1,1,0.3,1,1.0,0,1.0,0,1.0,0,1.0
1319,1814,'1',0.00105,0.00723,0.00013,115.0,115.0,126.5,0.0,0.0,0.0,0.0,1,1,0.5,1,1.0,0,1.0,0,1.0,0,1.0
1321,1814,'1',0.00375417,0.00901,0.00011,55.0,24.0,75.0,0.0,0.0,0.0,0.0,1,1,0.5,1,1.0,0,1.0,0,1.0,0,1.0
1323,1324,'1',0.00422917,0.01015,0.00018,55.0,24.0,75.0,0.0,0.0,0.0,0.0,1,1,0.6,1,1.0,0,1.0,0,1.0,0,1.0
1323,1326,'1',0.00287,0.01025,0.0002,80.0,80.0,88.0,0.0,0.0,0.0,0.0,1,1,0.7,1,1.0,0,1.0,0,1.0,0,1.0
1323,1326,'2',0.00287,0.01025,0.0002,80.0,80.0,88.0,0.0,0.0,0.0,0.0,1,1,0.7,1,1.0,0,1.0,0,1.0,0,1.0
1325,1326,'1',0.00341,0.0152,0.00026,88.0,88.0,96.8,0.0,0.0,0.0,0.0,1,1,1.0,1,1.0,0,1.0,0,1.0,0,1.0
1325,1599,'1',0.0070375,0.01689,0.00032,55.0,24.0,75.0,0.0,0.0,0.0,0.0,1,1,1.1,1,1.0,0,1.0,0,1.0,0,1.0
1327,1328,'1',0.00335,0.01289,0.00022,80.0,80.0,88.0,0.0,0.0,0.0,0.0,1,1,0.8,1,1.0,0,1.0,0,1.0,0,1.0
1327,1329,'1',0.01168,0.03349,0.00052,64.0,64.0,70.4,0.0,0.0,0.0,0.0,1,1,2.0,1,1.0,0,1.0,0,1.0,0,1.0
1330,1818,'1',0.01711,0.0714,0.00206,96.0,96.0,105.6,0.0,0.0,0.0,0.0,1,1,5.9,1,1.0,0,1.0,0,1.0,0,1.0
1331,1332,'1',0.0135458,0.03251,0.00051,55.0,30.0,75.0,0.0,0.0,0.0,0.0,1,1,1.9,1,1.0,0,1.0,0,1.0,0,1.0
1332,1333,'1',0.00995,0.02388,0.00035,55.0,24.0,75.0,0.0,0.0,0.0,0.0,1,1,1.4,1,1.0,0,1.0,0,1.0,0,1.0
1336,1823,'1',0.0103667,0.02488,0.00035,55.0,35.0,75.0,0.0,0.0,0.0,0.0,1,1,1.4,1,1.0,0,1.0,0,1.0,0,1.0
1337,1355,'1',0.0152583,0.03662,0.0009,59.0,59.0,64.9,0.0,0.0,0.0,0.0,1,1,2.8,1,1.0,0,1.0,0,1.0,0,1.0
1337,1825,'1',0.00585,0.02576,0.00045,88.0,88.0,96.8,0.0,0.0,0.0,0.0,1,1,1.7,1,1.0,0,1.0,0,1.0,0,1.0
1338,1340,'1',0.0206125,0.04947,0.00068,55.0,24.0,75.0,0.0,0.0,0.0,0.0,1,1,2.8,1,1.0,0,1.0,0,1.0,0,1.0
1339,1340,'1',0.0169667,0.04072,0.00061,55.0,35.0,75.0,0.0,0.0,0.0,0.0,1,1,2.4,1,1.0,0,1.0,0,1.0,0,1.0
1339,1514,'1',0.0246917,0.05926,0.00075,55.0,24.0,75.0,0.0,0.0,0.0,0.0,1,1,3.2,1,1.0,0,1.0,0,1.0,0,1.0
1340,1825,'1',0.00929,0.05283,0.00096,103.0,103.0,113.3,0.0,0.0,0.0,0.0,1,1,3.5,1,1.0,0,1.0,0,1.0,0,1.0
1341,1343,'1',0.00582917,0.01399,0.00018,55.0,24.0,75.0,0.0,0.0,0.0,0.0,1,1,0.8,1,1.0,0,1.0,0,1.0,0,1.0
1341,1824,'1',0.00249,0.00658,0.00012,64.0,64.0,70.4,0.0,0.0,0.0,0.0,1,1,0.4,1,1.0,0,1.0,0,1.0,0,1.0
1342,1344,'1',0.00448333,0.01076,0.0002,59.0,59.0,64.9,0.0,0.0,0.0,0.0,1,1,0.7,1,1.0,0,1.0,0,1.0,0,1.0
1344,1345,'1',0.017625,0.0423,0.00064,55.0,33.0,75.0,0.0,0.0,0.0,0.0,1,1,2.5,1,1.0,0,1.0,0,1.0,0,1.0
1346,1347,'1',0.00895833,0.0215,0.00029,55.0,30.0,75.0,0.0,0.0,0.0,0.0,1,1,1.2,1,1.0,0,1.0,0,1.0,0,1.0
1347,1350,'1',0.0202583,0.04862,0.00075,55.0,39.0,75.0,0.0,0.0,0.0,0.0,1,1,2.9,1,1.0,0,1.0,0,1.0,0,1.0
1347,1827,'1',0.00248,0.01035,0.0003,96.0,96.0,105.6,0.0,0.0,0.0,0.0,1,1,0.8,1,1.0,0,1.0,0,1.0,0,1.0
1348,1349,'1',0.00792917,0.01903,0.00024,55.0,24.0,75.0,0.0,0.0,0.0,0.0,1,1,1.0,1,1.0,0,1.0,0,1.0,0,1.0
1350,1351,'1',0.0162167,0.03892,0.00057,55.0,24.0,75.0,0.0,0.0,0.0,0.0,1,1,2.3,1,1.0,0,1.0,0,1.0,0,1.0
1353,1354,'1',0.0110375,0.02649,0.00048,59.0,59.0,64.9,0.0,0.0,0.0,0.0,1,1,1.7,1,1.0,0,1.0,0,1.0,0,1.0
...